file 5582 1643914241                                            
version 2
run General-0-20220203-19:48:57-389541
attr configname General
attr datetime 20220203-19:48:57
attr experiment General
attr inifile example1.ini
attr iterationvars ""
attr iterationvarsf ""
attr measurement ""
attr network src.dtnsim
attr processid 389541
attr repetition 0
attr replication #0
attr resultdir results
attr runnumber 0
attr seedset 0
param dtnsim.nodesNumber 9
param dtnsim.node[1..3].icon "\"satellite\""
param dtnsim.node[*].fault.enable false
param dtnsim.node[*].fault.faultSeed 0*10
param dtnsim.node[*].fault.meanTTF 20s
param dtnsim.node[*].fault.meanTTR 5s
param dtnsim.node[*].dtn.routing "\"uncertainUniboCgr\""
param dtnsim.node[*].dtn.routingType "\"routeListType:allPaths-initial+anchor,volumeAware:allContacts,extensionBlock:on,contactPlan:local\""
param dtnsim.node[*].dtn.printRoutingDebug true
param dtnsim.central.contactsFile "\"contactPlan/contactPlan.txt\""
param dtnsim.central.useSpecificFailureProbabilities true
param dtnsim.node[*].dtn.saveBundleMap true
param dtnsim.central.saveTopology true
param dtnsim.central.saveFlows true
param dtnsim.node[1].app.enable true
param dtnsim.node[1].app.returnToSender false
param dtnsim.node[1].app.bundlesNumber "\"1,1,1\""
param dtnsim.node[1].app.start "\"0,20,25\""
param dtnsim.node[1].app.destinationEid "\"6,4,3\""
param dtnsim.node[1].app.size "\"1000, 1000, 1000\""
param dtnsim.node[4].app.enable true
param dtnsim.node[4].app.returnToSender false
param dtnsim.node[4].app.bundlesNumber "\"1\""
param dtnsim.node[4].app.start "\"86\""
param dtnsim.node[4].app.destinationEid "\"5\""
param dtnsim.node[4].app.size "\"1000\""

vector 0 dtnsim.node[1].dtn sdrBundleStored:vector ETV
attr interpolationmode none
attr source sdrBundleStored
attr title "sdrBundleStored, vector"
vector 1 dtnsim.node[1].dtn sdrBytesStored:vector ETV
attr interpolationmode none
attr source sdrBytesStored
attr title "sdrBytesStored, vector"
vector 2 dtnsim.node[2].dtn sdrBundleStored:vector ETV
attr interpolationmode none
attr source sdrBundleStored
attr title "sdrBundleStored, vector"
vector 3 dtnsim.node[2].dtn sdrBytesStored:vector ETV
attr interpolationmode none
attr source sdrBytesStored
attr title "sdrBytesStored, vector"
vector 4 dtnsim.node[3].dtn sdrBundleStored:vector ETV
attr interpolationmode none
attr source sdrBundleStored
attr title "sdrBundleStored, vector"
vector 5 dtnsim.node[3].dtn sdrBytesStored:vector ETV
attr interpolationmode none
attr source sdrBytesStored
attr title "sdrBytesStored, vector"
vector 6 dtnsim.node[4].dtn sdrBundleStored:vector ETV
attr interpolationmode none
attr source sdrBundleStored
attr title "sdrBundleStored, vector"
vector 7 dtnsim.node[4].dtn sdrBytesStored:vector ETV
attr interpolationmode none
attr source sdrBytesStored
attr title "sdrBytesStored, vector"
vector 8 dtnsim.node[5].dtn sdrBundleStored:vector ETV
attr interpolationmode none
attr source sdrBundleStored
attr title "sdrBundleStored, vector"
vector 9 dtnsim.node[5].dtn sdrBytesStored:vector ETV
attr interpolationmode none
attr source sdrBytesStored
attr title "sdrBytesStored, vector"
vector 10 dtnsim.node[6].dtn sdrBundleStored:vector ETV
attr interpolationmode none
attr source sdrBundleStored
attr title "sdrBundleStored, vector"
vector 11 dtnsim.node[6].dtn sdrBytesStored:vector ETV
attr interpolationmode none
attr source sdrBytesStored
attr title "sdrBytesStored, vector"
vector 12 dtnsim.node[7].dtn sdrBundleStored:vector ETV
attr interpolationmode none
attr source sdrBundleStored
attr title "sdrBundleStored, vector"
vector 13 dtnsim.node[7].dtn sdrBytesStored:vector ETV
attr interpolationmode none
attr source sdrBytesStored
attr title "sdrBytesStored, vector"
vector 14 dtnsim.node[8].dtn sdrBundleStored:vector ETV
attr interpolationmode none
attr source sdrBundleStored
attr title "sdrBundleStored, vector"
vector 15 dtnsim.node[8].dtn sdrBytesStored:vector ETV
attr interpolationmode none
attr source sdrBytesStored
attr title "sdrBytesStored, vector"
vector 16 dtnsim.node[9].dtn sdrBundleStored:vector ETV
attr interpolationmode none
attr source sdrBundleStored
attr title "sdrBundleStored, vector"
vector 17 dtnsim.node[9].dtn sdrBytesStored:vector ETV
attr interpolationmode none
attr source sdrBytesStored
attr title "sdrBytesStored, vector"
vector 18 dtnsim.node[3].dtn dtnBundleSentToAppHopCount:vector ETV
attr interpolationmode none
attr source dtnBundleSentToAppHopCount
attr title "dtnBundleSentToAppHopCount, vector"
vector 19 dtnsim.node[4].dtn dtnBundleSentToAppHopCount:vector ETV
attr interpolationmode none
attr source dtnBundleSentToAppHopCount
attr title "dtnBundleSentToAppHopCount, vector"
vector 20 dtnsim.node[5].dtn dtnBundleSentToAppHopCount:vector ETV
attr interpolationmode none
attr source dtnBundleSentToAppHopCount
attr title "dtnBundleSentToAppHopCount, vector"
0	4816 75 0 79 0 120 8 0 2 5 7
1	4891 87 0 79 0 120 8 0 2000 5000 7000000
2	4978 19 0 79 0 120 2 0 0 0 0
3	4997 19 0 79 0 120 2 0 0 0 0
4	5016 59 0 79 0 120 6 0 2 4 6
5	5075 68 0 79 0 120 6 0 2000 4000 6000000
6	5143 59 0 79 0 120 6 0 1 2 2
7	5202 65 0 79 0 120 6 0 1000 2000 2000000
8	5267 40 0 79 0 120 4 0 1 1 1
9	5307 43 0 79 0 120 4 0 1000 1000 1000000
10	5350 21 0 79 0 120 2 0 0 0 0
11	5371 21 0 79 0 120 2 0 0 0 0
12	5392 33 0 79 0 120 3 0 1 2 2
13	5425 39 0 79 0 120 3 0 1000 2000 2000000
14	5464 21 0 79 0 120 2 0 0 0 0
15	5485 21 0 79 0 120 2 0 0 0 0
16	5506 21 0 79 0 120 2 0 0 0 0
17	5527 21 0 79 0 120 2 0 0 0 0
18	5548 11 23 23 25 25 1 1 1 1 1
19	5559 11 39 39 61 61 1 2 2 2 4
20	5570 11 57 57 86 86 1 1 1 1 1

