version 2
run General-0-20220321-19:40:41-1463053
attr configname General
attr datetime 20220321-19:40:41
attr experiment General
attr inifile example1.ini
attr iterationvars ""
attr iterationvarsf ""
attr measurement ""
attr network src.dtnsim
attr processid 1463053
attr repetition 0
attr replication #0
attr resultdir results
attr runnumber 0
attr seedset 0
param dtnsim.nodesNumber 9
param dtnsim.node[1..3].icon "\"satellite\""
param dtnsim.node[*].fault.enable false
param dtnsim.node[*].fault.faultSeed 0*10
param dtnsim.node[*].fault.meanTTF 20s
param dtnsim.node[*].fault.meanTTR 5s
param dtnsim.node[*].dtn.routing "\"uncertainUniboCgr\""
param dtnsim.node[*].dtn.routingType "\"routeListType:allPaths-initial+anchor,volumeAware:allContacts,extensionBlock:on,contactPlan:local\""
param dtnsim.node[*].dtn.printRoutingDebug true
param dtnsim.central.contactsFile "\"contactPlan/contactPlan.txt\""
param dtnsim.central.useSpecificFailureProbabilities true
param dtnsim.central.failureProbability -1
param dtnsim.central.mode 0
param dtnsim.central.useUncertainty true
param dtnsim.central.repetition 0
param dtnsim.node[*].dtn.saveBundleMap true
param dtnsim.central.saveTopology true
param dtnsim.central.saveFlows true
param dtnsim.node[9].app.enable true
param dtnsim.node[9].app.returnToSender false
param dtnsim.node[9].app.bundlesNumber "\"1\""
param dtnsim.node[9].app.start "\"95\""
param dtnsim.node[9].app.destinationEid "\"2\""
param dtnsim.node[9].app.size "\"1000\""

vector 0 dtnsim.node[1].dtn sdrBundleStored:vector ETV
attr interpolationmode none
attr source sdrBundleStored
attr title "sdrBundleStored, vector"
vector 1 dtnsim.node[1].dtn sdrBytesStored:vector ETV
attr interpolationmode none
attr source sdrBytesStored
attr title "sdrBytesStored, vector"
vector 2 dtnsim.node[2].dtn sdrBundleStored:vector ETV
attr interpolationmode none
attr source sdrBundleStored
attr title "sdrBundleStored, vector"
vector 3 dtnsim.node[2].dtn sdrBytesStored:vector ETV
attr interpolationmode none
attr source sdrBytesStored
attr title "sdrBytesStored, vector"
vector 4 dtnsim.node[3].dtn sdrBundleStored:vector ETV
attr interpolationmode none
attr source sdrBundleStored
attr title "sdrBundleStored, vector"
vector 5 dtnsim.node[3].dtn sdrBytesStored:vector ETV
attr interpolationmode none
attr source sdrBytesStored
attr title "sdrBytesStored, vector"
vector 6 dtnsim.node[4].dtn sdrBundleStored:vector ETV
attr interpolationmode none
attr source sdrBundleStored
attr title "sdrBundleStored, vector"
vector 7 dtnsim.node[4].dtn sdrBytesStored:vector ETV
attr interpolationmode none
attr source sdrBytesStored
attr title "sdrBytesStored, vector"
vector 8 dtnsim.node[5].dtn sdrBundleStored:vector ETV
attr interpolationmode none
attr source sdrBundleStored
attr title "sdrBundleStored, vector"
vector 9 dtnsim.node[5].dtn sdrBytesStored:vector ETV
attr interpolationmode none
attr source sdrBytesStored
attr title "sdrBytesStored, vector"
vector 10 dtnsim.node[6].dtn sdrBundleStored:vector ETV
attr interpolationmode none
attr source sdrBundleStored
attr title "sdrBundleStored, vector"
vector 11 dtnsim.node[6].dtn sdrBytesStored:vector ETV
attr interpolationmode none
attr source sdrBytesStored
attr title "sdrBytesStored, vector"
vector 12 dtnsim.node[7].dtn sdrBundleStored:vector ETV
attr interpolationmode none
attr source sdrBundleStored
attr title "sdrBundleStored, vector"
vector 13 dtnsim.node[7].dtn sdrBytesStored:vector ETV
attr interpolationmode none
attr source sdrBytesStored
attr title "sdrBytesStored, vector"
vector 14 dtnsim.node[8].dtn sdrBundleStored:vector ETV
attr interpolationmode none
attr source sdrBundleStored
attr title "sdrBundleStored, vector"
vector 15 dtnsim.node[8].dtn sdrBytesStored:vector ETV
attr interpolationmode none
attr source sdrBytesStored
attr title "sdrBytesStored, vector"
vector 16 dtnsim.node[9].dtn sdrBundleStored:vector ETV
attr interpolationmode none
attr source sdrBundleStored
attr title "sdrBundleStored, vector"
vector 17 dtnsim.node[9].dtn sdrBytesStored:vector ETV
attr interpolationmode none
attr source sdrBytesStored
attr title "sdrBytesStored, vector"
0	0	0	0
0	30	120	0
1	0	0	0
1	30	120	0
2	0	0	0
2	30	120	0
3	0	0	0
3	30	120	0
4	0	0	0
4	30	120	0
5	0	0	0
5	30	120	0
6	0	0	0
6	19	110	1
6	30	120	1
7	0	0	0
7	19	110	1000
7	30	120	1000
8	0	0	0
8	7	100	1
8	16	110	0
8	30	120	0
9	0	0	0
9	7	100	1000
9	16	110	0
9	30	120	0
10	0	0	0
10	30	120	0
11	0	0	0
11	30	120	0
12	0	0	0
12	30	120	0
13	0	0	0
13	30	120	0
14	0	0	0
14	30	120	0
15	0	0	0
15	30	120	0
16	0	0	0
16	2	95	1
16	4	100	0
16	30	120	0
17	0	0	0
17	2	95	1000
17	4	100	0
17	30	120	0

