version 3
run General-0-20230408-20:20:50-1229
attr configname General
attr datetime 20230408-20:20:50
attr datetimef 20230408-202050
attr experiment General
attr inifile hindawi_rrn.ini
attr iterationvars $meanTTF=100
attr iterationvarsd meanTTF=100
attr iterationvarsf meanTTF=100-
attr measurement $meanTTF=100
attr network src.dtnsim
attr processid 1229
attr repetition 0
attr replication #0
attr resultdir results
attr runnumber 0
attr seedset 0
itervar meanTTF 100
config allow-object-stealing-on-deletion true
config network src.dtnsim
config repeat 10
config sim-time-limit 86400s
config dtnsim.nodesNumber 48
config dtnsim.node[48].icon "\"server2\""
config dtnsim.node[1..6].icon "\"receiverdish\""
config dtnsim.node[7..31].icon "\"antennatower\""
config dtnsim.node[32..47].icon "\"satellite\""
config dtnsim.node[32..47].fault.enable false
config dtnsim.node[32..47].fault.faultSeed (0+10)*10
config dtnsim.node[32..47].fault.meanTTF 100s
config dtnsim.node[32..47].fault.meanTTR 60*5s
config dtnsim.node[*].dtn.routing "\"cgrModelRev17\""
config dtnsim.node[*].dtn.routingType "\"routeListType:allPaths-initial+anchor,volumeAware:allContacts,extensionBlock:on,contactPlan:local\""
config dtnsim.node[*].dtn.printRoutingDebug false
config dtnsim.central.contactsFile "\"contactPlan/RingRoad_16sats_ATrack_6hotspots_simtime24hs_comrange1000km.txt\""
config dtnsim.node[48].app.enable true
config dtnsim.node[48].app.returnToSender false
config dtnsim.node[48].app.bundlesNumber "\"10,10,10,10,10,10,10,10,10,10,10,10,10,10,10,10,10,10,10,10,10,10,10,10,10\""
config dtnsim.node[48].app.start "\"1,1,1,1,1,1,1,1,1,1,1,1,1,1,1,1,1,1,1,1,1,1,1,1,1\""
config dtnsim.node[48].app.interval 3600
config dtnsim.node[48].app.destinationEid "\"7,8,9,10,11,12,13,14,15,16,17,18,19,20,21,22,23,24,25,26,27,28,29,30,31\""
config dtnsim.node[48].app.size "\"125000,125000,125000,125000,125000,125000,125000,125000,125000,125000,125000,125000,125000,125000,125000,125000,125000,125000,125000,125000,125000,125000,125000,125000,125000\""
config dtnsim.node[7..31].app.enable true
config dtnsim.node[7..31].app.returnToSender false
config dtnsim.node[7..31].app.bundlesNumber "\"10\""
config dtnsim.node[7..31].app.start "\"1\""
config dtnsim.node[7..31].app.interval 3600
config dtnsim.node[7..31].app.destinationEid "\"48\""
config dtnsim.node[7..31].app.size "\"125000\""

par dtnsim.node[0].app typename "\"src.node.app.App\""
par dtnsim.node[0].app enable false
par dtnsim.node[0].app destinationEid "\"1\""
par dtnsim.node[0].app bundlesNumber "\"1\""
par dtnsim.node[0].app size "\"1024\""
par dtnsim.node[0].app start "\"0\""
par dtnsim.node[0].app interval 0
par dtnsim.node[0].app ttl 9e+06
par dtnsim.node[0].app returnToSender true
par dtnsim.node[0].app critical false
par dtnsim.node[0].app custodyTransfer false
par dtnsim.node[0].app externalTrafficEvents "\"\""
scalar dtnsim.node[0].app appBundleReceivedDelay:mean nan
attr interpolationmode none
attr recordingmode mean
attr source appBundleReceivedDelay
attr title "appBundleReceivedDelay, mean"
scalar dtnsim.node[0].app appBundleReceivedDelay:max nan
attr interpolationmode none
attr recordingmode max
attr source appBundleReceivedDelay
attr title "appBundleReceivedDelay, max"
scalar dtnsim.node[0].app appBundleReceivedDelay:min nan
attr interpolationmode none
attr recordingmode min
attr source appBundleReceivedDelay
attr title "appBundleReceivedDelay, min"
statistic dtnsim.node[0].app appBundleReceivedDelay:histogram
field count 0
field mean nan
field stddev nan
field min nan
field max nan
field sum 0
field sqrsum 0
attr interpolationmode none
attr recordingmode histogram
attr source appBundleReceivedDelay
attr title appBundleReceivedDelay
bin	-inf	0
bin	0	0
bin	1	0
scalar dtnsim.node[0].app appBundleReceivedHops:mean nan
attr interpolationmode none
attr recordingmode mean
attr source appBundleReceivedHops
attr title "appBundleReceivedHops, mean"
scalar dtnsim.node[0].app appBundleReceivedHops:max nan
attr interpolationmode none
attr recordingmode max
attr source appBundleReceivedHops
attr title "appBundleReceivedHops, max"
scalar dtnsim.node[0].app appBundleReceivedHops:min nan
attr interpolationmode none
attr recordingmode min
attr source appBundleReceivedHops
attr title "appBundleReceivedHops, min"
statistic dtnsim.node[0].app appBundleReceivedHops:histogram
field count 0
field mean nan
field stddev nan
field min nan
field max nan
field sum 0
field sqrsum 0
attr interpolationmode none
attr recordingmode histogram
attr source appBundleReceivedHops
attr title appBundleReceivedHops
bin	-inf	0
bin	0	0
bin	1	0
scalar dtnsim.node[0].app appBundleReceived:count 0
attr interpolationmode none
attr recordingmode count
attr source appBundleReceived
attr title "appBundleReceived, count"
scalar dtnsim.node[0].app appBundleSent:count 0
attr interpolationmode none
attr recordingmode count
attr source appBundleSent
attr title "appBundleSent, count"
par dtnsim.node[0].dtn typename "\"src.node.dtn.Dtn\""
par dtnsim.node[0].dtn routing "\"cgrModelRev17\""
par dtnsim.node[0].dtn routingType "\"routeListType:allPaths-initial+anchor,volumeAware:allContacts,extensionBlock:on,contactPlan:local\""
par dtnsim.node[0].dtn bundlesCopies 1
par dtnsim.node[0].dtn sContactProb 1
par dtnsim.node[0].dtn printRoutingDebug false
par dtnsim.node[0].dtn saveBundleMap false
par dtnsim.node[0].dtn sdrSize 0
par dtnsim.node[0].dtn frouting "\"\""
par dtnsim.node[0].dtn ts_duration -1
par dtnsim.node[0].dtn ts_start_times "\"\""
par dtnsim.node[0].dtn pEncouterMax 0.7
par dtnsim.node[0].dtn pEncouterFirst 0.5
par dtnsim.node[0].dtn pFirstThreshold 0.1
par dtnsim.node[0].dtn ForwThresh 0
par dtnsim.node[0].dtn alpha 0.5
par dtnsim.node[0].dtn beta 0.9
par dtnsim.node[0].dtn gamma 0.999
par dtnsim.node[0].dtn delta 0.01
par dtnsim.node[0].dtn custodyReportByteSize 20
par dtnsim.node[0].dtn custodyTimeout 100
scalar dtnsim.node[0].dtn routeCgrRouteTableEntriesExplored:max nan
attr interpolationmode none
attr recordingmode max
attr source routeCgrRouteTableEntriesExplored
attr title "routeCgrRouteTableEntriesExplored, max"
scalar dtnsim.node[0].dtn routeCgrRouteTableEntriesExplored:sum 0
attr interpolationmode none
attr recordingmode sum
attr source routeCgrRouteTableEntriesExplored
attr title "routeCgrRouteTableEntriesExplored, sum"
scalar dtnsim.node[0].dtn routeCgrRouteTableEntriesCreated:max nan
attr interpolationmode none
attr recordingmode max
attr source routeCgrRouteTableEntriesCreated
attr title "routeCgrRouteTableEntriesCreated, max"
scalar dtnsim.node[0].dtn routeCgrRouteTableEntriesCreated:sum 0
attr interpolationmode none
attr recordingmode sum
attr source routeCgrRouteTableEntriesCreated
attr title "routeCgrRouteTableEntriesCreated, sum"
scalar dtnsim.node[0].dtn routeCgrDijkstraLoops:sum 0
attr interpolationmode none
attr recordingmode sum
attr source routeCgrDijkstraLoops
attr title "routeCgrDijkstraLoops, sum"
scalar dtnsim.node[0].dtn routeCgrDijkstraCalls:sum 0
attr interpolationmode none
attr recordingmode sum
attr source routeCgrDijkstraCalls
attr title "routeCgrDijkstraCalls, sum"
scalar dtnsim.node[0].dtn sdrBytesStored:timeavg nan
attr interpolationmode none
attr recordingmode timeavg
attr source sdrBytesStored
attr title "sdrBytesStored, timeavg"
scalar dtnsim.node[0].dtn sdrBytesStored:max nan
attr interpolationmode none
attr recordingmode max
attr source sdrBytesStored
attr title "sdrBytesStored, max"
scalar dtnsim.node[0].dtn sdrBundleStored:timeavg nan
attr interpolationmode none
attr recordingmode timeavg
attr source sdrBundleStored
attr title "sdrBundleStored, timeavg"
scalar dtnsim.node[0].dtn sdrBundleStored:max nan
attr interpolationmode none
attr recordingmode max
attr source sdrBundleStored
attr title "sdrBundleStored, max"
scalar dtnsim.node[0].dtn dtnBundleReRouted:count 0
attr interpolationmode none
attr recordingmode count
attr source dtnBundleReRouted
attr title "dtnBundleReRouted, count"
scalar dtnsim.node[0].dtn dtnBundleReceivedFromApp:count 0
attr interpolationmode none
attr recordingmode count
attr source dtnBundleReceivedFromApp
attr title "dtnBundleReceivedFromApp, count"
scalar dtnsim.node[0].dtn dtnBundleReceivedFromCom:count 0
attr interpolationmode none
attr recordingmode count
attr source dtnBundleReceivedFromCom
attr title "dtnBundleReceivedFromCom, count"
statistic dtnsim.node[0].dtn dtnBundleSentToAppRevisitedHops:histogram
field count 0
field mean nan
field stddev nan
field min nan
field max nan
field sum 0
field sqrsum 0
attr interpolationmode none
attr recordingmode histogram
attr source dtnBundleSentToAppRevisitedHops
attr title dtnBundleSentToAppRevisitedHops
bin	-inf	0
bin	0	0
bin	1	0
statistic dtnsim.node[0].dtn dtnBundleSentToAppHopCount:histogram
field count 0
field mean nan
field stddev nan
field min nan
field max nan
field sum 0
field sqrsum 0
attr interpolationmode none
attr recordingmode histogram
attr source dtnBundleSentToAppHopCount
attr title dtnBundleSentToAppHopCount
bin	-inf	0
bin	0	0
bin	1	0
scalar dtnsim.node[0].dtn dtnBundleSentToApp:count 0
attr interpolationmode none
attr recordingmode count
attr source dtnBundleSentToApp
attr title "dtnBundleSentToApp, count"
scalar dtnsim.node[0].dtn dtnBundleSentToCom:count 0
attr interpolationmode none
attr recordingmode count
attr source dtnBundleSentToCom
attr title "dtnBundleSentToCom, count"
par dtnsim.node[0].com typename "\"src.node.com.Com\""
par dtnsim.node[0].com packetLoss 0
par dtnsim.node[0].graphics typename "\"src.node.graphics.Graphics\""
par dtnsim.node[0].graphics enable true
par dtnsim.node[0].fault typename "\"src.node.fault.Fault\""
par dtnsim.node[0].fault enable false
par dtnsim.node[0].fault faultSeed 0
par dtnsim.node[0].fault meanTTF 0seconds
attr unit seconds
par dtnsim.node[0].fault meanTTR 0seconds
attr unit seconds
par dtnsim.node[0] typename "\"src.node.Node\""
par dtnsim.node[0] icon "\"satellite\""
par dtnsim.node[1].app typename "\"src.node.app.App\""
par dtnsim.node[1].app enable false
par dtnsim.node[1].app destinationEid "\"1\""
par dtnsim.node[1].app bundlesNumber "\"1\""
par dtnsim.node[1].app size "\"1024\""
par dtnsim.node[1].app start "\"0\""
par dtnsim.node[1].app interval 0
par dtnsim.node[1].app ttl 9e+06
par dtnsim.node[1].app returnToSender true
par dtnsim.node[1].app critical false
par dtnsim.node[1].app custodyTransfer false
par dtnsim.node[1].app externalTrafficEvents "\"\""
scalar dtnsim.node[1].app appBundleReceivedDelay:mean nan
attr interpolationmode none
attr recordingmode mean
attr source appBundleReceivedDelay
attr title "appBundleReceivedDelay, mean"
scalar dtnsim.node[1].app appBundleReceivedDelay:max nan
attr interpolationmode none
attr recordingmode max
attr source appBundleReceivedDelay
attr title "appBundleReceivedDelay, max"
scalar dtnsim.node[1].app appBundleReceivedDelay:min nan
attr interpolationmode none
attr recordingmode min
attr source appBundleReceivedDelay
attr title "appBundleReceivedDelay, min"
statistic dtnsim.node[1].app appBundleReceivedDelay:histogram
field count 0
field mean nan
field stddev nan
field min nan
field max nan
field sum 0
field sqrsum 0
attr interpolationmode none
attr recordingmode histogram
attr source appBundleReceivedDelay
attr title appBundleReceivedDelay
bin	-inf	0
bin	0	0
bin	1	0
scalar dtnsim.node[1].app appBundleReceivedHops:mean nan
attr interpolationmode none
attr recordingmode mean
attr source appBundleReceivedHops
attr title "appBundleReceivedHops, mean"
scalar dtnsim.node[1].app appBundleReceivedHops:max nan
attr interpolationmode none
attr recordingmode max
attr source appBundleReceivedHops
attr title "appBundleReceivedHops, max"
scalar dtnsim.node[1].app appBundleReceivedHops:min nan
attr interpolationmode none
attr recordingmode min
attr source appBundleReceivedHops
attr title "appBundleReceivedHops, min"
statistic dtnsim.node[1].app appBundleReceivedHops:histogram
field count 0
field mean nan
field stddev nan
field min nan
field max nan
field sum 0
field sqrsum 0
attr interpolationmode none
attr recordingmode histogram
attr source appBundleReceivedHops
attr title appBundleReceivedHops
bin	-inf	0
bin	0	0
bin	1	0
scalar dtnsim.node[1].app appBundleReceived:count 0
attr interpolationmode none
attr recordingmode count
attr source appBundleReceived
attr title "appBundleReceived, count"
scalar dtnsim.node[1].app appBundleSent:count 0
attr interpolationmode none
attr recordingmode count
attr source appBundleSent
attr title "appBundleSent, count"
par dtnsim.node[1].dtn typename "\"src.node.dtn.Dtn\""
par dtnsim.node[1].dtn routing "\"cgrModelRev17\""
par dtnsim.node[1].dtn routingType "\"routeListType:allPaths-initial+anchor,volumeAware:allContacts,extensionBlock:on,contactPlan:local\""
par dtnsim.node[1].dtn bundlesCopies 1
par dtnsim.node[1].dtn sContactProb 1
par dtnsim.node[1].dtn printRoutingDebug false
par dtnsim.node[1].dtn saveBundleMap false
par dtnsim.node[1].dtn sdrSize 0
par dtnsim.node[1].dtn frouting "\"\""
par dtnsim.node[1].dtn ts_duration -1
par dtnsim.node[1].dtn ts_start_times "\"\""
par dtnsim.node[1].dtn pEncouterMax 0.7
par dtnsim.node[1].dtn pEncouterFirst 0.5
par dtnsim.node[1].dtn pFirstThreshold 0.1
par dtnsim.node[1].dtn ForwThresh 0
par dtnsim.node[1].dtn alpha 0.5
par dtnsim.node[1].dtn beta 0.9
par dtnsim.node[1].dtn gamma 0.999
par dtnsim.node[1].dtn delta 0.01
par dtnsim.node[1].dtn custodyReportByteSize 20
par dtnsim.node[1].dtn custodyTimeout 100
scalar dtnsim.node[1].dtn routeCgrRouteTableEntriesExplored:max 0
attr interpolationmode none
attr recordingmode max
attr source routeCgrRouteTableEntriesExplored
attr title "routeCgrRouteTableEntriesExplored, max"
scalar dtnsim.node[1].dtn routeCgrRouteTableEntriesExplored:sum 0
attr interpolationmode none
attr recordingmode sum
attr source routeCgrRouteTableEntriesExplored
attr title "routeCgrRouteTableEntriesExplored, sum"
scalar dtnsim.node[1].dtn routeCgrRouteTableEntriesCreated:max 0
attr interpolationmode none
attr recordingmode max
attr source routeCgrRouteTableEntriesCreated
attr title "routeCgrRouteTableEntriesCreated, max"
scalar dtnsim.node[1].dtn routeCgrRouteTableEntriesCreated:sum 0
attr interpolationmode none
attr recordingmode sum
attr source routeCgrRouteTableEntriesCreated
attr title "routeCgrRouteTableEntriesCreated, sum"
scalar dtnsim.node[1].dtn routeCgrDijkstraLoops:sum 0
attr interpolationmode none
attr recordingmode sum
attr source routeCgrDijkstraLoops
attr title "routeCgrDijkstraLoops, sum"
scalar dtnsim.node[1].dtn routeCgrDijkstraCalls:sum 0
attr interpolationmode none
attr recordingmode sum
attr source routeCgrDijkstraCalls
attr title "routeCgrDijkstraCalls, sum"
scalar dtnsim.node[1].dtn sdrBytesStored:timeavg 21147.235243056
attr interpolationmode none
attr recordingmode timeavg
attr source sdrBytesStored
attr title "sdrBytesStored, timeavg"
scalar dtnsim.node[1].dtn sdrBytesStored:max 1375000
attr interpolationmode none
attr recordingmode max
attr source sdrBytesStored
attr title "sdrBytesStored, max"
scalar dtnsim.node[1].dtn sdrBundleStored:timeavg 0.16917788194444
attr interpolationmode none
attr recordingmode timeavg
attr source sdrBundleStored
attr title "sdrBundleStored, timeavg"
scalar dtnsim.node[1].dtn sdrBundleStored:max 11
attr interpolationmode none
attr recordingmode max
attr source sdrBundleStored
attr title "sdrBundleStored, max"
scalar dtnsim.node[1].dtn dtnBundleReRouted:count 0
attr interpolationmode none
attr recordingmode count
attr source dtnBundleReRouted
attr title "dtnBundleReRouted, count"
scalar dtnsim.node[1].dtn dtnBundleReceivedFromApp:count 0
attr interpolationmode none
attr recordingmode count
attr source dtnBundleReceivedFromApp
attr title "dtnBundleReceivedFromApp, count"
scalar dtnsim.node[1].dtn dtnBundleReceivedFromCom:count 61
attr interpolationmode none
attr recordingmode count
attr source dtnBundleReceivedFromCom
attr title "dtnBundleReceivedFromCom, count"
statistic dtnsim.node[1].dtn dtnBundleSentToAppRevisitedHops:histogram
field count 0
field mean nan
field stddev nan
field min nan
field max nan
field sum 0
field sqrsum 0
attr interpolationmode none
attr recordingmode histogram
attr source dtnBundleSentToAppRevisitedHops
attr title dtnBundleSentToAppRevisitedHops
bin	-inf	0
bin	0	0
bin	1	0
statistic dtnsim.node[1].dtn dtnBundleSentToAppHopCount:histogram
field count 0
field mean nan
field stddev nan
field min nan
field max nan
field sum 0
field sqrsum 0
attr interpolationmode none
attr recordingmode histogram
attr source dtnBundleSentToAppHopCount
attr title dtnBundleSentToAppHopCount
bin	-inf	0
bin	0	0
bin	1	0
scalar dtnsim.node[1].dtn dtnBundleSentToApp:count 0
attr interpolationmode none
attr recordingmode count
attr source dtnBundleSentToApp
attr title "dtnBundleSentToApp, count"
scalar dtnsim.node[1].dtn dtnBundleSentToCom:count 61
attr interpolationmode none
attr recordingmode count
attr source dtnBundleSentToCom
attr title "dtnBundleSentToCom, count"
par dtnsim.node[1].com typename "\"src.node.com.Com\""
par dtnsim.node[1].com packetLoss 0
par dtnsim.node[1].graphics typename "\"src.node.graphics.Graphics\""
par dtnsim.node[1].graphics enable true
par dtnsim.node[1].fault typename "\"src.node.fault.Fault\""
par dtnsim.node[1].fault enable false
par dtnsim.node[1].fault faultSeed 0
par dtnsim.node[1].fault meanTTF 0seconds
attr unit seconds
par dtnsim.node[1].fault meanTTR 0seconds
attr unit seconds
par dtnsim.node[1] typename "\"src.node.Node\""
par dtnsim.node[1] icon "\"receiverdish\""
par dtnsim.node[2].app typename "\"src.node.app.App\""
par dtnsim.node[2].app enable false
par dtnsim.node[2].app destinationEid "\"1\""
par dtnsim.node[2].app bundlesNumber "\"1\""
par dtnsim.node[2].app size "\"1024\""
par dtnsim.node[2].app start "\"0\""
par dtnsim.node[2].app interval 0
par dtnsim.node[2].app ttl 9e+06
par dtnsim.node[2].app returnToSender true
par dtnsim.node[2].app critical false
par dtnsim.node[2].app custodyTransfer false
par dtnsim.node[2].app externalTrafficEvents "\"\""
scalar dtnsim.node[2].app appBundleReceivedDelay:mean nan
attr interpolationmode none
attr recordingmode mean
attr source appBundleReceivedDelay
attr title "appBundleReceivedDelay, mean"
scalar dtnsim.node[2].app appBundleReceivedDelay:max nan
attr interpolationmode none
attr recordingmode max
attr source appBundleReceivedDelay
attr title "appBundleReceivedDelay, max"
scalar dtnsim.node[2].app appBundleReceivedDelay:min nan
attr interpolationmode none
attr recordingmode min
attr source appBundleReceivedDelay
attr title "appBundleReceivedDelay, min"
statistic dtnsim.node[2].app appBundleReceivedDelay:histogram
field count 0
field mean nan
field stddev nan
field min nan
field max nan
field sum 0
field sqrsum 0
attr interpolationmode none
attr recordingmode histogram
attr source appBundleReceivedDelay
attr title appBundleReceivedDelay
bin	-inf	0
bin	0	0
bin	1	0
scalar dtnsim.node[2].app appBundleReceivedHops:mean nan
attr interpolationmode none
attr recordingmode mean
attr source appBundleReceivedHops
attr title "appBundleReceivedHops, mean"
scalar dtnsim.node[2].app appBundleReceivedHops:max nan
attr interpolationmode none
attr recordingmode max
attr source appBundleReceivedHops
attr title "appBundleReceivedHops, max"
scalar dtnsim.node[2].app appBundleReceivedHops:min nan
attr interpolationmode none
attr recordingmode min
attr source appBundleReceivedHops
attr title "appBundleReceivedHops, min"
statistic dtnsim.node[2].app appBundleReceivedHops:histogram
field count 0
field mean nan
field stddev nan
field min nan
field max nan
field sum 0
field sqrsum 0
attr interpolationmode none
attr recordingmode histogram
attr source appBundleReceivedHops
attr title appBundleReceivedHops
bin	-inf	0
bin	0	0
bin	1	0
scalar dtnsim.node[2].app appBundleReceived:count 0
attr interpolationmode none
attr recordingmode count
attr source appBundleReceived
attr title "appBundleReceived, count"
scalar dtnsim.node[2].app appBundleSent:count 0
attr interpolationmode none
attr recordingmode count
attr source appBundleSent
attr title "appBundleSent, count"
par dtnsim.node[2].dtn typename "\"src.node.dtn.Dtn\""
par dtnsim.node[2].dtn routing "\"cgrModelRev17\""
par dtnsim.node[2].dtn routingType "\"routeListType:allPaths-initial+anchor,volumeAware:allContacts,extensionBlock:on,contactPlan:local\""
par dtnsim.node[2].dtn bundlesCopies 1
par dtnsim.node[2].dtn sContactProb 1
par dtnsim.node[2].dtn printRoutingDebug false
par dtnsim.node[2].dtn saveBundleMap false
par dtnsim.node[2].dtn sdrSize 0
par dtnsim.node[2].dtn frouting "\"\""
par dtnsim.node[2].dtn ts_duration -1
par dtnsim.node[2].dtn ts_start_times "\"\""
par dtnsim.node[2].dtn pEncouterMax 0.7
par dtnsim.node[2].dtn pEncouterFirst 0.5
par dtnsim.node[2].dtn pFirstThreshold 0.1
par dtnsim.node[2].dtn ForwThresh 0
par dtnsim.node[2].dtn alpha 0.5
par dtnsim.node[2].dtn beta 0.9
par dtnsim.node[2].dtn gamma 0.999
par dtnsim.node[2].dtn delta 0.01
par dtnsim.node[2].dtn custodyReportByteSize 20
par dtnsim.node[2].dtn custodyTimeout 100
scalar dtnsim.node[2].dtn routeCgrRouteTableEntriesExplored:max 0
attr interpolationmode none
attr recordingmode max
attr source routeCgrRouteTableEntriesExplored
attr title "routeCgrRouteTableEntriesExplored, max"
scalar dtnsim.node[2].dtn routeCgrRouteTableEntriesExplored:sum 0
attr interpolationmode none
attr recordingmode sum
attr source routeCgrRouteTableEntriesExplored
attr title "routeCgrRouteTableEntriesExplored, sum"
scalar dtnsim.node[2].dtn routeCgrRouteTableEntriesCreated:max 0
attr interpolationmode none
attr recordingmode max
attr source routeCgrRouteTableEntriesCreated
attr title "routeCgrRouteTableEntriesCreated, max"
scalar dtnsim.node[2].dtn routeCgrRouteTableEntriesCreated:sum 0
attr interpolationmode none
attr recordingmode sum
attr source routeCgrRouteTableEntriesCreated
attr title "routeCgrRouteTableEntriesCreated, sum"
scalar dtnsim.node[2].dtn routeCgrDijkstraLoops:sum 0
attr interpolationmode none
attr recordingmode sum
attr source routeCgrDijkstraLoops
attr title "routeCgrDijkstraLoops, sum"
scalar dtnsim.node[2].dtn routeCgrDijkstraCalls:sum 0
attr interpolationmode none
attr recordingmode sum
attr source routeCgrDijkstraCalls
attr title "routeCgrDijkstraCalls, sum"
scalar dtnsim.node[2].dtn sdrBytesStored:timeavg 262084.73524306
attr interpolationmode none
attr recordingmode timeavg
attr source sdrBytesStored
attr title "sdrBytesStored, timeavg"
scalar dtnsim.node[2].dtn sdrBytesStored:max 1125000
attr interpolationmode none
attr recordingmode max
attr source sdrBytesStored
attr title "sdrBytesStored, max"
scalar dtnsim.node[2].dtn sdrBundleStored:timeavg 2.0966778819444
attr interpolationmode none
attr recordingmode timeavg
attr source sdrBundleStored
attr title "sdrBundleStored, timeavg"
scalar dtnsim.node[2].dtn sdrBundleStored:max 9
attr interpolationmode none
attr recordingmode max
attr source sdrBundleStored
attr title "sdrBundleStored, max"
scalar dtnsim.node[2].dtn dtnBundleReRouted:count 0
attr interpolationmode none
attr recordingmode count
attr source dtnBundleReRouted
attr title "dtnBundleReRouted, count"
scalar dtnsim.node[2].dtn dtnBundleReceivedFromApp:count 0
attr interpolationmode none
attr recordingmode count
attr source dtnBundleReceivedFromApp
attr title "dtnBundleReceivedFromApp, count"
scalar dtnsim.node[2].dtn dtnBundleReceivedFromCom:count 25
attr interpolationmode none
attr recordingmode count
attr source dtnBundleReceivedFromCom
attr title "dtnBundleReceivedFromCom, count"
statistic dtnsim.node[2].dtn dtnBundleSentToAppRevisitedHops:histogram
field count 0
field mean nan
field stddev nan
field min nan
field max nan
field sum 0
field sqrsum 0
attr interpolationmode none
attr recordingmode histogram
attr source dtnBundleSentToAppRevisitedHops
attr title dtnBundleSentToAppRevisitedHops
bin	-inf	0
bin	0	0
bin	1	0
statistic dtnsim.node[2].dtn dtnBundleSentToAppHopCount:histogram
field count 0
field mean nan
field stddev nan
field min nan
field max nan
field sum 0
field sqrsum 0
attr interpolationmode none
attr recordingmode histogram
attr source dtnBundleSentToAppHopCount
attr title dtnBundleSentToAppHopCount
bin	-inf	0
bin	0	0
bin	1	0
scalar dtnsim.node[2].dtn dtnBundleSentToApp:count 0
attr interpolationmode none
attr recordingmode count
attr source dtnBundleSentToApp
attr title "dtnBundleSentToApp, count"
scalar dtnsim.node[2].dtn dtnBundleSentToCom:count 25
attr interpolationmode none
attr recordingmode count
attr source dtnBundleSentToCom
attr title "dtnBundleSentToCom, count"
par dtnsim.node[2].com typename "\"src.node.com.Com\""
par dtnsim.node[2].com packetLoss 0
par dtnsim.node[2].graphics typename "\"src.node.graphics.Graphics\""
par dtnsim.node[2].graphics enable true
par dtnsim.node[2].fault typename "\"src.node.fault.Fault\""
par dtnsim.node[2].fault enable false
par dtnsim.node[2].fault faultSeed 0
par dtnsim.node[2].fault meanTTF 0seconds
attr unit seconds
par dtnsim.node[2].fault meanTTR 0seconds
attr unit seconds
par dtnsim.node[2] typename "\"src.node.Node\""
par dtnsim.node[2] icon "\"receiverdish\""
par dtnsim.node[3].app typename "\"src.node.app.App\""
par dtnsim.node[3].app enable false
par dtnsim.node[3].app destinationEid "\"1\""
par dtnsim.node[3].app bundlesNumber "\"1\""
par dtnsim.node[3].app size "\"1024\""
par dtnsim.node[3].app start "\"0\""
par dtnsim.node[3].app interval 0
par dtnsim.node[3].app ttl 9e+06
par dtnsim.node[3].app returnToSender true
par dtnsim.node[3].app critical false
par dtnsim.node[3].app custodyTransfer false
par dtnsim.node[3].app externalTrafficEvents "\"\""
scalar dtnsim.node[3].app appBundleReceivedDelay:mean nan
attr interpolationmode none
attr recordingmode mean
attr source appBundleReceivedDelay
attr title "appBundleReceivedDelay, mean"
scalar dtnsim.node[3].app appBundleReceivedDelay:max nan
attr interpolationmode none
attr recordingmode max
attr source appBundleReceivedDelay
attr title "appBundleReceivedDelay, max"
scalar dtnsim.node[3].app appBundleReceivedDelay:min nan
attr interpolationmode none
attr recordingmode min
attr source appBundleReceivedDelay
attr title "appBundleReceivedDelay, min"
statistic dtnsim.node[3].app appBundleReceivedDelay:histogram
field count 0
field mean nan
field stddev nan
field min nan
field max nan
field sum 0
field sqrsum 0
attr interpolationmode none
attr recordingmode histogram
attr source appBundleReceivedDelay
attr title appBundleReceivedDelay
bin	-inf	0
bin	0	0
bin	1	0
scalar dtnsim.node[3].app appBundleReceivedHops:mean nan
attr interpolationmode none
attr recordingmode mean
attr source appBundleReceivedHops
attr title "appBundleReceivedHops, mean"
scalar dtnsim.node[3].app appBundleReceivedHops:max nan
attr interpolationmode none
attr recordingmode max
attr source appBundleReceivedHops
attr title "appBundleReceivedHops, max"
scalar dtnsim.node[3].app appBundleReceivedHops:min nan
attr interpolationmode none
attr recordingmode min
attr source appBundleReceivedHops
attr title "appBundleReceivedHops, min"
statistic dtnsim.node[3].app appBundleReceivedHops:histogram
field count 0
field mean nan
field stddev nan
field min nan
field max nan
field sum 0
field sqrsum 0
attr interpolationmode none
attr recordingmode histogram
attr source appBundleReceivedHops
attr title appBundleReceivedHops
bin	-inf	0
bin	0	0
bin	1	0
scalar dtnsim.node[3].app appBundleReceived:count 0
attr interpolationmode none
attr recordingmode count
attr source appBundleReceived
attr title "appBundleReceived, count"
scalar dtnsim.node[3].app appBundleSent:count 0
attr interpolationmode none
attr recordingmode count
attr source appBundleSent
attr title "appBundleSent, count"
par dtnsim.node[3].dtn typename "\"src.node.dtn.Dtn\""
par dtnsim.node[3].dtn routing "\"cgrModelRev17\""
par dtnsim.node[3].dtn routingType "\"routeListType:allPaths-initial+anchor,volumeAware:allContacts,extensionBlock:on,contactPlan:local\""
par dtnsim.node[3].dtn bundlesCopies 1
par dtnsim.node[3].dtn sContactProb 1
par dtnsim.node[3].dtn printRoutingDebug false
par dtnsim.node[3].dtn saveBundleMap false
par dtnsim.node[3].dtn sdrSize 0
par dtnsim.node[3].dtn frouting "\"\""
par dtnsim.node[3].dtn ts_duration -1
par dtnsim.node[3].dtn ts_start_times "\"\""
par dtnsim.node[3].dtn pEncouterMax 0.7
par dtnsim.node[3].dtn pEncouterFirst 0.5
par dtnsim.node[3].dtn pFirstThreshold 0.1
par dtnsim.node[3].dtn ForwThresh 0
par dtnsim.node[3].dtn alpha 0.5
par dtnsim.node[3].dtn beta 0.9
par dtnsim.node[3].dtn gamma 0.999
par dtnsim.node[3].dtn delta 0.01
par dtnsim.node[3].dtn custodyReportByteSize 20
par dtnsim.node[3].dtn custodyTimeout 100
scalar dtnsim.node[3].dtn routeCgrRouteTableEntriesExplored:max 0
attr interpolationmode none
attr recordingmode max
attr source routeCgrRouteTableEntriesExplored
attr title "routeCgrRouteTableEntriesExplored, max"
scalar dtnsim.node[3].dtn routeCgrRouteTableEntriesExplored:sum 0
attr interpolationmode none
attr recordingmode sum
attr source routeCgrRouteTableEntriesExplored
attr title "routeCgrRouteTableEntriesExplored, sum"
scalar dtnsim.node[3].dtn routeCgrRouteTableEntriesCreated:max 0
attr interpolationmode none
attr recordingmode max
attr source routeCgrRouteTableEntriesCreated
attr title "routeCgrRouteTableEntriesCreated, max"
scalar dtnsim.node[3].dtn routeCgrRouteTableEntriesCreated:sum 0
attr interpolationmode none
attr recordingmode sum
attr source routeCgrRouteTableEntriesCreated
attr title "routeCgrRouteTableEntriesCreated, sum"
scalar dtnsim.node[3].dtn routeCgrDijkstraLoops:sum 0
attr interpolationmode none
attr recordingmode sum
attr source routeCgrDijkstraLoops
attr title "routeCgrDijkstraLoops, sum"
scalar dtnsim.node[3].dtn routeCgrDijkstraCalls:sum 0
attr interpolationmode none
attr recordingmode sum
attr source routeCgrDijkstraCalls
attr title "routeCgrDijkstraCalls, sum"
scalar dtnsim.node[3].dtn sdrBytesStored:timeavg 20350.002893519
attr interpolationmode none
attr recordingmode timeavg
attr source sdrBytesStored
attr title "sdrBytesStored, timeavg"
scalar dtnsim.node[3].dtn sdrBytesStored:max 1625000
attr interpolationmode none
attr recordingmode max
attr source sdrBytesStored
attr title "sdrBytesStored, max"
scalar dtnsim.node[3].dtn sdrBundleStored:timeavg 0.16280002314815
attr interpolationmode none
attr recordingmode timeavg
attr source sdrBundleStored
attr title "sdrBundleStored, timeavg"
scalar dtnsim.node[3].dtn sdrBundleStored:max 13
attr interpolationmode none
attr recordingmode max
attr source sdrBundleStored
attr title "sdrBundleStored, max"
scalar dtnsim.node[3].dtn dtnBundleReRouted:count 0
attr interpolationmode none
attr recordingmode count
attr source dtnBundleReRouted
attr title "dtnBundleReRouted, count"
scalar dtnsim.node[3].dtn dtnBundleReceivedFromApp:count 0
attr interpolationmode none
attr recordingmode count
attr source dtnBundleReceivedFromApp
attr title "dtnBundleReceivedFromApp, count"
scalar dtnsim.node[3].dtn dtnBundleReceivedFromCom:count 38
attr interpolationmode none
attr recordingmode count
attr source dtnBundleReceivedFromCom
attr title "dtnBundleReceivedFromCom, count"
statistic dtnsim.node[3].dtn dtnBundleSentToAppRevisitedHops:histogram
field count 0
field mean nan
field stddev nan
field min nan
field max nan
field sum 0
field sqrsum 0
attr interpolationmode none
attr recordingmode histogram
attr source dtnBundleSentToAppRevisitedHops
attr title dtnBundleSentToAppRevisitedHops
bin	-inf	0
bin	0	0
bin	1	0
statistic dtnsim.node[3].dtn dtnBundleSentToAppHopCount:histogram
field count 0
field mean nan
field stddev nan
field min nan
field max nan
field sum 0
field sqrsum 0
attr interpolationmode none
attr recordingmode histogram
attr source dtnBundleSentToAppHopCount
attr title dtnBundleSentToAppHopCount
bin	-inf	0
bin	0	0
bin	1	0
scalar dtnsim.node[3].dtn dtnBundleSentToApp:count 0
attr interpolationmode none
attr recordingmode count
attr source dtnBundleSentToApp
attr title "dtnBundleSentToApp, count"
scalar dtnsim.node[3].dtn dtnBundleSentToCom:count 38
attr interpolationmode none
attr recordingmode count
attr source dtnBundleSentToCom
attr title "dtnBundleSentToCom, count"
par dtnsim.node[3].com typename "\"src.node.com.Com\""
par dtnsim.node[3].com packetLoss 0
par dtnsim.node[3].graphics typename "\"src.node.graphics.Graphics\""
par dtnsim.node[3].graphics enable true
par dtnsim.node[3].fault typename "\"src.node.fault.Fault\""
par dtnsim.node[3].fault enable false
par dtnsim.node[3].fault faultSeed 0
par dtnsim.node[3].fault meanTTF 0seconds
attr unit seconds
par dtnsim.node[3].fault meanTTR 0seconds
attr unit seconds
par dtnsim.node[3] typename "\"src.node.Node\""
par dtnsim.node[3] icon "\"receiverdish\""
par dtnsim.node[4].app typename "\"src.node.app.App\""
par dtnsim.node[4].app enable false
par dtnsim.node[4].app destinationEid "\"1\""
par dtnsim.node[4].app bundlesNumber "\"1\""
par dtnsim.node[4].app size "\"1024\""
par dtnsim.node[4].app start "\"0\""
par dtnsim.node[4].app interval 0
par dtnsim.node[4].app ttl 9e+06
par dtnsim.node[4].app returnToSender true
par dtnsim.node[4].app critical false
par dtnsim.node[4].app custodyTransfer false
par dtnsim.node[4].app externalTrafficEvents "\"\""
scalar dtnsim.node[4].app appBundleReceivedDelay:mean nan
attr interpolationmode none
attr recordingmode mean
attr source appBundleReceivedDelay
attr title "appBundleReceivedDelay, mean"
scalar dtnsim.node[4].app appBundleReceivedDelay:max nan
attr interpolationmode none
attr recordingmode max
attr source appBundleReceivedDelay
attr title "appBundleReceivedDelay, max"
scalar dtnsim.node[4].app appBundleReceivedDelay:min nan
attr interpolationmode none
attr recordingmode min
attr source appBundleReceivedDelay
attr title "appBundleReceivedDelay, min"
statistic dtnsim.node[4].app appBundleReceivedDelay:histogram
field count 0
field mean nan
field stddev nan
field min nan
field max nan
field sum 0
field sqrsum 0
attr interpolationmode none
attr recordingmode histogram
attr source appBundleReceivedDelay
attr title appBundleReceivedDelay
bin	-inf	0
bin	0	0
bin	1	0
scalar dtnsim.node[4].app appBundleReceivedHops:mean nan
attr interpolationmode none
attr recordingmode mean
attr source appBundleReceivedHops
attr title "appBundleReceivedHops, mean"
scalar dtnsim.node[4].app appBundleReceivedHops:max nan
attr interpolationmode none
attr recordingmode max
attr source appBundleReceivedHops
attr title "appBundleReceivedHops, max"
scalar dtnsim.node[4].app appBundleReceivedHops:min nan
attr interpolationmode none
attr recordingmode min
attr source appBundleReceivedHops
attr title "appBundleReceivedHops, min"
statistic dtnsim.node[4].app appBundleReceivedHops:histogram
field count 0
field mean nan
field stddev nan
field min nan
field max nan
field sum 0
field sqrsum 0
attr interpolationmode none
attr recordingmode histogram
attr source appBundleReceivedHops
attr title appBundleReceivedHops
bin	-inf	0
bin	0	0
bin	1	0
scalar dtnsim.node[4].app appBundleReceived:count 0
attr interpolationmode none
attr recordingmode count
attr source appBundleReceived
attr title "appBundleReceived, count"
scalar dtnsim.node[4].app appBundleSent:count 0
attr interpolationmode none
attr recordingmode count
attr source appBundleSent
attr title "appBundleSent, count"
par dtnsim.node[4].dtn typename "\"src.node.dtn.Dtn\""
par dtnsim.node[4].dtn routing "\"cgrModelRev17\""
par dtnsim.node[4].dtn routingType "\"routeListType:allPaths-initial+anchor,volumeAware:allContacts,extensionBlock:on,contactPlan:local\""
par dtnsim.node[4].dtn bundlesCopies 1
par dtnsim.node[4].dtn sContactProb 1
par dtnsim.node[4].dtn printRoutingDebug false
par dtnsim.node[4].dtn saveBundleMap false
par dtnsim.node[4].dtn sdrSize 0
par dtnsim.node[4].dtn frouting "\"\""
par dtnsim.node[4].dtn ts_duration -1
par dtnsim.node[4].dtn ts_start_times "\"\""
par dtnsim.node[4].dtn pEncouterMax 0.7
par dtnsim.node[4].dtn pEncouterFirst 0.5
par dtnsim.node[4].dtn pFirstThreshold 0.1
par dtnsim.node[4].dtn ForwThresh 0
par dtnsim.node[4].dtn alpha 0.5
par dtnsim.node[4].dtn beta 0.9
par dtnsim.node[4].dtn gamma 0.999
par dtnsim.node[4].dtn delta 0.01
par dtnsim.node[4].dtn custodyReportByteSize 20
par dtnsim.node[4].dtn custodyTimeout 100
scalar dtnsim.node[4].dtn routeCgrRouteTableEntriesExplored:max 0
attr interpolationmode none
attr recordingmode max
attr source routeCgrRouteTableEntriesExplored
attr title "routeCgrRouteTableEntriesExplored, max"
scalar dtnsim.node[4].dtn routeCgrRouteTableEntriesExplored:sum 0
attr interpolationmode none
attr recordingmode sum
attr source routeCgrRouteTableEntriesExplored
attr title "routeCgrRouteTableEntriesExplored, sum"
scalar dtnsim.node[4].dtn routeCgrRouteTableEntriesCreated:max 0
attr interpolationmode none
attr recordingmode max
attr source routeCgrRouteTableEntriesCreated
attr title "routeCgrRouteTableEntriesCreated, max"
scalar dtnsim.node[4].dtn routeCgrRouteTableEntriesCreated:sum 0
attr interpolationmode none
attr recordingmode sum
attr source routeCgrRouteTableEntriesCreated
attr title "routeCgrRouteTableEntriesCreated, sum"
scalar dtnsim.node[4].dtn routeCgrDijkstraLoops:sum 0
attr interpolationmode none
attr recordingmode sum
attr source routeCgrDijkstraLoops
attr title "routeCgrDijkstraLoops, sum"
scalar dtnsim.node[4].dtn routeCgrDijkstraCalls:sum 0
attr interpolationmode none
attr recordingmode sum
attr source routeCgrDijkstraCalls
attr title "routeCgrDijkstraCalls, sum"
scalar dtnsim.node[4].dtn sdrBytesStored:timeavg 2537384.0639468
attr interpolationmode none
attr recordingmode timeavg
attr source sdrBytesStored
attr title "sdrBytesStored, timeavg"
scalar dtnsim.node[4].dtn sdrBytesStored:max 15375000
attr interpolationmode none
attr recordingmode max
attr source sdrBytesStored
attr title "sdrBytesStored, max"
scalar dtnsim.node[4].dtn sdrBundleStored:timeavg 20.299072511574
attr interpolationmode none
attr recordingmode timeavg
attr source sdrBundleStored
attr title "sdrBundleStored, timeavg"
scalar dtnsim.node[4].dtn sdrBundleStored:max 123
attr interpolationmode none
attr recordingmode max
attr source sdrBundleStored
attr title "sdrBundleStored, max"
scalar dtnsim.node[4].dtn dtnBundleReRouted:count 0
attr interpolationmode none
attr recordingmode count
attr source dtnBundleReRouted
attr title "dtnBundleReRouted, count"
scalar dtnsim.node[4].dtn dtnBundleReceivedFromApp:count 0
attr interpolationmode none
attr recordingmode count
attr source dtnBundleReceivedFromApp
attr title "dtnBundleReceivedFromApp, count"
scalar dtnsim.node[4].dtn dtnBundleReceivedFromCom:count 184
attr interpolationmode none
attr recordingmode count
attr source dtnBundleReceivedFromCom
attr title "dtnBundleReceivedFromCom, count"
statistic dtnsim.node[4].dtn dtnBundleSentToAppRevisitedHops:histogram
field count 0
field mean nan
field stddev nan
field min nan
field max nan
field sum 0
field sqrsum 0
attr interpolationmode none
attr recordingmode histogram
attr source dtnBundleSentToAppRevisitedHops
attr title dtnBundleSentToAppRevisitedHops
bin	-inf	0
bin	0	0
bin	1	0
statistic dtnsim.node[4].dtn dtnBundleSentToAppHopCount:histogram
field count 0
field mean nan
field stddev nan
field min nan
field max nan
field sum 0
field sqrsum 0
attr interpolationmode none
attr recordingmode histogram
attr source dtnBundleSentToAppHopCount
attr title dtnBundleSentToAppHopCount
bin	-inf	0
bin	0	0
bin	1	0
scalar dtnsim.node[4].dtn dtnBundleSentToApp:count 0
attr interpolationmode none
attr recordingmode count
attr source dtnBundleSentToApp
attr title "dtnBundleSentToApp, count"
scalar dtnsim.node[4].dtn dtnBundleSentToCom:count 184
attr interpolationmode none
attr recordingmode count
attr source dtnBundleSentToCom
attr title "dtnBundleSentToCom, count"
par dtnsim.node[4].com typename "\"src.node.com.Com\""
par dtnsim.node[4].com packetLoss 0
par dtnsim.node[4].graphics typename "\"src.node.graphics.Graphics\""
par dtnsim.node[4].graphics enable true
par dtnsim.node[4].fault typename "\"src.node.fault.Fault\""
par dtnsim.node[4].fault enable false
par dtnsim.node[4].fault faultSeed 0
par dtnsim.node[4].fault meanTTF 0seconds
attr unit seconds
par dtnsim.node[4].fault meanTTR 0seconds
attr unit seconds
par dtnsim.node[4] typename "\"src.node.Node\""
par dtnsim.node[4] icon "\"receiverdish\""
par dtnsim.node[5].app typename "\"src.node.app.App\""
par dtnsim.node[5].app enable false
par dtnsim.node[5].app destinationEid "\"1\""
par dtnsim.node[5].app bundlesNumber "\"1\""
par dtnsim.node[5].app size "\"1024\""
par dtnsim.node[5].app start "\"0\""
par dtnsim.node[5].app interval 0
par dtnsim.node[5].app ttl 9e+06
par dtnsim.node[5].app returnToSender true
par dtnsim.node[5].app critical false
par dtnsim.node[5].app custodyTransfer false
par dtnsim.node[5].app externalTrafficEvents "\"\""
scalar dtnsim.node[5].app appBundleReceivedDelay:mean nan
attr interpolationmode none
attr recordingmode mean
attr source appBundleReceivedDelay
attr title "appBundleReceivedDelay, mean"
scalar dtnsim.node[5].app appBundleReceivedDelay:max nan
attr interpolationmode none
attr recordingmode max
attr source appBundleReceivedDelay
attr title "appBundleReceivedDelay, max"
scalar dtnsim.node[5].app appBundleReceivedDelay:min nan
attr interpolationmode none
attr recordingmode min
attr source appBundleReceivedDelay
attr title "appBundleReceivedDelay, min"
statistic dtnsim.node[5].app appBundleReceivedDelay:histogram
field count 0
field mean nan
field stddev nan
field min nan
field max nan
field sum 0
field sqrsum 0
attr interpolationmode none
attr recordingmode histogram
attr source appBundleReceivedDelay
attr title appBundleReceivedDelay
bin	-inf	0
bin	0	0
bin	1	0
scalar dtnsim.node[5].app appBundleReceivedHops:mean nan
attr interpolationmode none
attr recordingmode mean
attr source appBundleReceivedHops
attr title "appBundleReceivedHops, mean"
scalar dtnsim.node[5].app appBundleReceivedHops:max nan
attr interpolationmode none
attr recordingmode max
attr source appBundleReceivedHops
attr title "appBundleReceivedHops, max"
scalar dtnsim.node[5].app appBundleReceivedHops:min nan
attr interpolationmode none
attr recordingmode min
attr source appBundleReceivedHops
attr title "appBundleReceivedHops, min"
statistic dtnsim.node[5].app appBundleReceivedHops:histogram
field count 0
field mean nan
field stddev nan
field min nan
field max nan
field sum 0
field sqrsum 0
attr interpolationmode none
attr recordingmode histogram
attr source appBundleReceivedHops
attr title appBundleReceivedHops
bin	-inf	0
bin	0	0
bin	1	0
scalar dtnsim.node[5].app appBundleReceived:count 0
attr interpolationmode none
attr recordingmode count
attr source appBundleReceived
attr title "appBundleReceived, count"
scalar dtnsim.node[5].app appBundleSent:count 0
attr interpolationmode none
attr recordingmode count
attr source appBundleSent
attr title "appBundleSent, count"
par dtnsim.node[5].dtn typename "\"src.node.dtn.Dtn\""
par dtnsim.node[5].dtn routing "\"cgrModelRev17\""
par dtnsim.node[5].dtn routingType "\"routeListType:allPaths-initial+anchor,volumeAware:allContacts,extensionBlock:on,contactPlan:local\""
par dtnsim.node[5].dtn bundlesCopies 1
par dtnsim.node[5].dtn sContactProb 1
par dtnsim.node[5].dtn printRoutingDebug false
par dtnsim.node[5].dtn saveBundleMap false
par dtnsim.node[5].dtn sdrSize 0
par dtnsim.node[5].dtn frouting "\"\""
par dtnsim.node[5].dtn ts_duration -1
par dtnsim.node[5].dtn ts_start_times "\"\""
par dtnsim.node[5].dtn pEncouterMax 0.7
par dtnsim.node[5].dtn pEncouterFirst 0.5
par dtnsim.node[5].dtn pFirstThreshold 0.1
par dtnsim.node[5].dtn ForwThresh 0
par dtnsim.node[5].dtn alpha 0.5
par dtnsim.node[5].dtn beta 0.9
par dtnsim.node[5].dtn gamma 0.999
par dtnsim.node[5].dtn delta 0.01
par dtnsim.node[5].dtn custodyReportByteSize 20
par dtnsim.node[5].dtn custodyTimeout 100
scalar dtnsim.node[5].dtn routeCgrRouteTableEntriesExplored:max 0
attr interpolationmode none
attr recordingmode max
attr source routeCgrRouteTableEntriesExplored
attr title "routeCgrRouteTableEntriesExplored, max"
scalar dtnsim.node[5].dtn routeCgrRouteTableEntriesExplored:sum 0
attr interpolationmode none
attr recordingmode sum
attr source routeCgrRouteTableEntriesExplored
attr title "routeCgrRouteTableEntriesExplored, sum"
scalar dtnsim.node[5].dtn routeCgrRouteTableEntriesCreated:max 0
attr interpolationmode none
attr recordingmode max
attr source routeCgrRouteTableEntriesCreated
attr title "routeCgrRouteTableEntriesCreated, max"
scalar dtnsim.node[5].dtn routeCgrRouteTableEntriesCreated:sum 0
attr interpolationmode none
attr recordingmode sum
attr source routeCgrRouteTableEntriesCreated
attr title "routeCgrRouteTableEntriesCreated, sum"
scalar dtnsim.node[5].dtn routeCgrDijkstraLoops:sum 0
attr interpolationmode none
attr recordingmode sum
attr source routeCgrDijkstraLoops
attr title "routeCgrDijkstraLoops, sum"
scalar dtnsim.node[5].dtn routeCgrDijkstraCalls:sum 0
attr interpolationmode none
attr recordingmode sum
attr source routeCgrDijkstraCalls
attr title "routeCgrDijkstraCalls, sum"
scalar dtnsim.node[5].dtn sdrBytesStored:timeavg 44023.408564815
attr interpolationmode none
attr recordingmode timeavg
attr source sdrBytesStored
attr title "sdrBytesStored, timeavg"
scalar dtnsim.node[5].dtn sdrBytesStored:max 1250000
attr interpolationmode none
attr recordingmode max
attr source sdrBytesStored
attr title "sdrBytesStored, max"
scalar dtnsim.node[5].dtn sdrBundleStored:timeavg 0.35218726851852
attr interpolationmode none
attr recordingmode timeavg
attr source sdrBundleStored
attr title "sdrBundleStored, timeavg"
scalar dtnsim.node[5].dtn sdrBundleStored:max 10
attr interpolationmode none
attr recordingmode max
attr source sdrBundleStored
attr title "sdrBundleStored, max"
scalar dtnsim.node[5].dtn dtnBundleReRouted:count 0
attr interpolationmode none
attr recordingmode count
attr source dtnBundleReRouted
attr title "dtnBundleReRouted, count"
scalar dtnsim.node[5].dtn dtnBundleReceivedFromApp:count 0
attr interpolationmode none
attr recordingmode count
attr source dtnBundleReceivedFromApp
attr title "dtnBundleReceivedFromApp, count"
scalar dtnsim.node[5].dtn dtnBundleReceivedFromCom:count 41
attr interpolationmode none
attr recordingmode count
attr source dtnBundleReceivedFromCom
attr title "dtnBundleReceivedFromCom, count"
statistic dtnsim.node[5].dtn dtnBundleSentToAppRevisitedHops:histogram
field count 0
field mean nan
field stddev nan
field min nan
field max nan
field sum 0
field sqrsum 0
attr interpolationmode none
attr recordingmode histogram
attr source dtnBundleSentToAppRevisitedHops
attr title dtnBundleSentToAppRevisitedHops
bin	-inf	0
bin	0	0
bin	1	0
statistic dtnsim.node[5].dtn dtnBundleSentToAppHopCount:histogram
field count 0
field mean nan
field stddev nan
field min nan
field max nan
field sum 0
field sqrsum 0
attr interpolationmode none
attr recordingmode histogram
attr source dtnBundleSentToAppHopCount
attr title dtnBundleSentToAppHopCount
bin	-inf	0
bin	0	0
bin	1	0
scalar dtnsim.node[5].dtn dtnBundleSentToApp:count 0
attr interpolationmode none
attr recordingmode count
attr source dtnBundleSentToApp
attr title "dtnBundleSentToApp, count"
scalar dtnsim.node[5].dtn dtnBundleSentToCom:count 41
attr interpolationmode none
attr recordingmode count
attr source dtnBundleSentToCom
attr title "dtnBundleSentToCom, count"
par dtnsim.node[5].com typename "\"src.node.com.Com\""
par dtnsim.node[5].com packetLoss 0
par dtnsim.node[5].graphics typename "\"src.node.graphics.Graphics\""
par dtnsim.node[5].graphics enable true
par dtnsim.node[5].fault typename "\"src.node.fault.Fault\""
par dtnsim.node[5].fault enable false
par dtnsim.node[5].fault faultSeed 0
par dtnsim.node[5].fault meanTTF 0seconds
attr unit seconds
par dtnsim.node[5].fault meanTTR 0seconds
attr unit seconds
par dtnsim.node[5] typename "\"src.node.Node\""
par dtnsim.node[5] icon "\"receiverdish\""
par dtnsim.node[6].app typename "\"src.node.app.App\""
par dtnsim.node[6].app enable false
par dtnsim.node[6].app destinationEid "\"1\""
par dtnsim.node[6].app bundlesNumber "\"1\""
par dtnsim.node[6].app size "\"1024\""
par dtnsim.node[6].app start "\"0\""
par dtnsim.node[6].app interval 0
par dtnsim.node[6].app ttl 9e+06
par dtnsim.node[6].app returnToSender true
par dtnsim.node[6].app critical false
par dtnsim.node[6].app custodyTransfer false
par dtnsim.node[6].app externalTrafficEvents "\"\""
scalar dtnsim.node[6].app appBundleReceivedDelay:mean nan
attr interpolationmode none
attr recordingmode mean
attr source appBundleReceivedDelay
attr title "appBundleReceivedDelay, mean"
scalar dtnsim.node[6].app appBundleReceivedDelay:max nan
attr interpolationmode none
attr recordingmode max
attr source appBundleReceivedDelay
attr title "appBundleReceivedDelay, max"
scalar dtnsim.node[6].app appBundleReceivedDelay:min nan
attr interpolationmode none
attr recordingmode min
attr source appBundleReceivedDelay
attr title "appBundleReceivedDelay, min"
statistic dtnsim.node[6].app appBundleReceivedDelay:histogram
field count 0
field mean nan
field stddev nan
field min nan
field max nan
field sum 0
field sqrsum 0
attr interpolationmode none
attr recordingmode histogram
attr source appBundleReceivedDelay
attr title appBundleReceivedDelay
bin	-inf	0
bin	0	0
bin	1	0
scalar dtnsim.node[6].app appBundleReceivedHops:mean nan
attr interpolationmode none
attr recordingmode mean
attr source appBundleReceivedHops
attr title "appBundleReceivedHops, mean"
scalar dtnsim.node[6].app appBundleReceivedHops:max nan
attr interpolationmode none
attr recordingmode max
attr source appBundleReceivedHops
attr title "appBundleReceivedHops, max"
scalar dtnsim.node[6].app appBundleReceivedHops:min nan
attr interpolationmode none
attr recordingmode min
attr source appBundleReceivedHops
attr title "appBundleReceivedHops, min"
statistic dtnsim.node[6].app appBundleReceivedHops:histogram
field count 0
field mean nan
field stddev nan
field min nan
field max nan
field sum 0
field sqrsum 0
attr interpolationmode none
attr recordingmode histogram
attr source appBundleReceivedHops
attr title appBundleReceivedHops
bin	-inf	0
bin	0	0
bin	1	0
scalar dtnsim.node[6].app appBundleReceived:count 0
attr interpolationmode none
attr recordingmode count
attr source appBundleReceived
attr title "appBundleReceived, count"
scalar dtnsim.node[6].app appBundleSent:count 0
attr interpolationmode none
attr recordingmode count
attr source appBundleSent
attr title "appBundleSent, count"
par dtnsim.node[6].dtn typename "\"src.node.dtn.Dtn\""
par dtnsim.node[6].dtn routing "\"cgrModelRev17\""
par dtnsim.node[6].dtn routingType "\"routeListType:allPaths-initial+anchor,volumeAware:allContacts,extensionBlock:on,contactPlan:local\""
par dtnsim.node[6].dtn bundlesCopies 1
par dtnsim.node[6].dtn sContactProb 1
par dtnsim.node[6].dtn printRoutingDebug false
par dtnsim.node[6].dtn saveBundleMap false
par dtnsim.node[6].dtn sdrSize 0
par dtnsim.node[6].dtn frouting "\"\""
par dtnsim.node[6].dtn ts_duration -1
par dtnsim.node[6].dtn ts_start_times "\"\""
par dtnsim.node[6].dtn pEncouterMax 0.7
par dtnsim.node[6].dtn pEncouterFirst 0.5
par dtnsim.node[6].dtn pFirstThreshold 0.1
par dtnsim.node[6].dtn ForwThresh 0
par dtnsim.node[6].dtn alpha 0.5
par dtnsim.node[6].dtn beta 0.9
par dtnsim.node[6].dtn gamma 0.999
par dtnsim.node[6].dtn delta 0.01
par dtnsim.node[6].dtn custodyReportByteSize 20
par dtnsim.node[6].dtn custodyTimeout 100
scalar dtnsim.node[6].dtn routeCgrRouteTableEntriesExplored:max 0
attr interpolationmode none
attr recordingmode max
attr source routeCgrRouteTableEntriesExplored
attr title "routeCgrRouteTableEntriesExplored, max"
scalar dtnsim.node[6].dtn routeCgrRouteTableEntriesExplored:sum 0
attr interpolationmode none
attr recordingmode sum
attr source routeCgrRouteTableEntriesExplored
attr title "routeCgrRouteTableEntriesExplored, sum"
scalar dtnsim.node[6].dtn routeCgrRouteTableEntriesCreated:max 0
attr interpolationmode none
attr recordingmode max
attr source routeCgrRouteTableEntriesCreated
attr title "routeCgrRouteTableEntriesCreated, max"
scalar dtnsim.node[6].dtn routeCgrRouteTableEntriesCreated:sum 0
attr interpolationmode none
attr recordingmode sum
attr source routeCgrRouteTableEntriesCreated
attr title "routeCgrRouteTableEntriesCreated, sum"
scalar dtnsim.node[6].dtn routeCgrDijkstraLoops:sum 0
attr interpolationmode none
attr recordingmode sum
attr source routeCgrDijkstraLoops
attr title "routeCgrDijkstraLoops, sum"
scalar dtnsim.node[6].dtn routeCgrDijkstraCalls:sum 0
attr interpolationmode none
attr recordingmode sum
attr source routeCgrDijkstraCalls
attr title "routeCgrDijkstraCalls, sum"
scalar dtnsim.node[6].dtn sdrBytesStored:timeavg 794573.11053241
attr interpolationmode none
attr recordingmode timeavg
attr source sdrBytesStored
attr title "sdrBytesStored, timeavg"
scalar dtnsim.node[6].dtn sdrBytesStored:max 1625000
attr interpolationmode none
attr recordingmode max
attr source sdrBytesStored
attr title "sdrBytesStored, max"
scalar dtnsim.node[6].dtn sdrBundleStored:timeavg 6.3565848842593
attr interpolationmode none
attr recordingmode timeavg
attr source sdrBundleStored
attr title "sdrBundleStored, timeavg"
scalar dtnsim.node[6].dtn sdrBundleStored:max 13
attr interpolationmode none
attr recordingmode max
attr source sdrBundleStored
attr title "sdrBundleStored, max"
scalar dtnsim.node[6].dtn dtnBundleReRouted:count 103
attr interpolationmode none
attr recordingmode count
attr source dtnBundleReRouted
attr title "dtnBundleReRouted, count"
scalar dtnsim.node[6].dtn dtnBundleReceivedFromApp:count 0
attr interpolationmode none
attr recordingmode count
attr source dtnBundleReceivedFromApp
attr title "dtnBundleReceivedFromApp, count"
scalar dtnsim.node[6].dtn dtnBundleReceivedFromCom:count 65
attr interpolationmode none
attr recordingmode count
attr source dtnBundleReceivedFromCom
attr title "dtnBundleReceivedFromCom, count"
statistic dtnsim.node[6].dtn dtnBundleSentToAppRevisitedHops:histogram
field count 0
field mean nan
field stddev nan
field min nan
field max nan
field sum 0
field sqrsum 0
attr interpolationmode none
attr recordingmode histogram
attr source dtnBundleSentToAppRevisitedHops
attr title dtnBundleSentToAppRevisitedHops
bin	-inf	0
bin	0	0
bin	1	0
statistic dtnsim.node[6].dtn dtnBundleSentToAppHopCount:histogram
field count 0
field mean nan
field stddev nan
field min nan
field max nan
field sum 0
field sqrsum 0
attr interpolationmode none
attr recordingmode histogram
attr source dtnBundleSentToAppHopCount
attr title dtnBundleSentToAppHopCount
bin	-inf	0
bin	0	0
bin	1	0
scalar dtnsim.node[6].dtn dtnBundleSentToApp:count 0
attr interpolationmode none
attr recordingmode count
attr source dtnBundleSentToApp
attr title "dtnBundleSentToApp, count"
scalar dtnsim.node[6].dtn dtnBundleSentToCom:count 61
attr interpolationmode none
attr recordingmode count
attr source dtnBundleSentToCom
attr title "dtnBundleSentToCom, count"
par dtnsim.node[6].com typename "\"src.node.com.Com\""
par dtnsim.node[6].com packetLoss 0
par dtnsim.node[6].graphics typename "\"src.node.graphics.Graphics\""
par dtnsim.node[6].graphics enable true
par dtnsim.node[6].fault typename "\"src.node.fault.Fault\""
par dtnsim.node[6].fault enable false
par dtnsim.node[6].fault faultSeed 0
par dtnsim.node[6].fault meanTTF 0seconds
attr unit seconds
par dtnsim.node[6].fault meanTTR 0seconds
attr unit seconds
par dtnsim.node[6] typename "\"src.node.Node\""
par dtnsim.node[6] icon "\"receiverdish\""
par dtnsim.node[7].app typename "\"src.node.app.App\""
par dtnsim.node[7].app enable true
par dtnsim.node[7].app destinationEid "\"48\""
par dtnsim.node[7].app bundlesNumber "\"10\""
par dtnsim.node[7].app size "\"125000\""
par dtnsim.node[7].app start "\"1\""
par dtnsim.node[7].app interval 3600
par dtnsim.node[7].app ttl 9e+06
par dtnsim.node[7].app returnToSender false
par dtnsim.node[7].app critical false
par dtnsim.node[7].app custodyTransfer false
par dtnsim.node[7].app externalTrafficEvents "\"\""
scalar dtnsim.node[7].app appBundleReceivedDelay:mean 23918.333333333
attr interpolationmode none
attr recordingmode mean
attr source appBundleReceivedDelay
attr title "appBundleReceivedDelay, mean"
scalar dtnsim.node[7].app appBundleReceivedDelay:max 40531
attr interpolationmode none
attr recordingmode max
attr source appBundleReceivedDelay
attr title "appBundleReceivedDelay, max"
scalar dtnsim.node[7].app appBundleReceivedDelay:min 5053
attr interpolationmode none
attr recordingmode min
attr source appBundleReceivedDelay
attr title "appBundleReceivedDelay, min"
statistic dtnsim.node[7].app appBundleReceivedDelay:histogram
field count 9
field mean 23918.333333333
field stddev 12754.416333177
field min 5053
field max 40531
field sum 215265
field sqrsum 6450181113
attr interpolationmode none
attr recordingmode histogram
attr source appBundleReceivedDelay
attr title appBundleReceivedDelay
bin	-inf	0
bin	0	0
bin	1000	0
bin	2000	0
bin	3000	0
bin	4000	0
bin	5000	1
bin	6000	0
bin	7000	0
bin	8000	1
bin	9000	0
bin	10000	0
bin	11000	0
bin	12000	1
bin	13000	0
bin	14000	0
bin	15000	0
bin	16000	0
bin	17000	0
bin	18000	0
bin	19000	0
bin	20000	0
bin	21000	0
bin	22000	1
bin	23000	0
bin	24000	0
bin	25000	0
bin	26000	1
bin	27000	0
bin	28000	0
bin	29000	1
bin	30000	0
bin	31000	0
bin	32000	0
bin	33000	1
bin	34000	0
bin	35000	0
bin	36000	1
bin	37000	0
bin	38000	0
bin	39000	0
bin	40000	1
bin	41000	0
bin	42000	0
bin	43000	0
bin	44000	0
bin	45000	0
bin	46000	0
bin	47000	0
bin	48000	0
bin	49000	0
bin	50000	0
scalar dtnsim.node[7].app appBundleReceivedHops:mean 6.3333333333333
attr interpolationmode none
attr recordingmode mean
attr source appBundleReceivedHops
attr title "appBundleReceivedHops, mean"
scalar dtnsim.node[7].app appBundleReceivedHops:max 18
attr interpolationmode none
attr recordingmode max
attr source appBundleReceivedHops
attr title "appBundleReceivedHops, max"
scalar dtnsim.node[7].app appBundleReceivedHops:min 3
attr interpolationmode none
attr recordingmode min
attr source appBundleReceivedHops
attr title "appBundleReceivedHops, min"
statistic dtnsim.node[7].app appBundleReceivedHops:histogram
field count 9
field mean 6.3333333333333
field stddev 4.7434164902526
field min 3
field max 18
field sum 57
field sqrsum 541
attr interpolationmode none
attr recordingmode histogram
attr source appBundleReceivedHops
attr title appBundleReceivedHops
bin	-inf	0
bin	0	0
bin	1	0
bin	2	0
bin	3	3
bin	4	1
bin	5	1
bin	6	1
bin	7	1
bin	8	1
bin	9	0
bin	10	0
bin	11	0
bin	12	0
bin	13	0
bin	14	0
bin	15	0
bin	16	0
bin	17	0
bin	18	1
bin	19	0
bin	20	0
bin	21	0
bin	22	0
scalar dtnsim.node[7].app appBundleReceived:count 9
attr interpolationmode none
attr recordingmode count
attr source appBundleReceived
attr title "appBundleReceived, count"
scalar dtnsim.node[7].app appBundleSent:count 10
attr interpolationmode none
attr recordingmode count
attr source appBundleSent
attr title "appBundleSent, count"
par dtnsim.node[7].dtn typename "\"src.node.dtn.Dtn\""
par dtnsim.node[7].dtn routing "\"cgrModelRev17\""
par dtnsim.node[7].dtn routingType "\"routeListType:allPaths-initial+anchor,volumeAware:allContacts,extensionBlock:on,contactPlan:local\""
par dtnsim.node[7].dtn bundlesCopies 1
par dtnsim.node[7].dtn sContactProb 1
par dtnsim.node[7].dtn printRoutingDebug false
par dtnsim.node[7].dtn saveBundleMap false
par dtnsim.node[7].dtn sdrSize 0
par dtnsim.node[7].dtn frouting "\"\""
par dtnsim.node[7].dtn ts_duration -1
par dtnsim.node[7].dtn ts_start_times "\"\""
par dtnsim.node[7].dtn pEncouterMax 0.7
par dtnsim.node[7].dtn pEncouterFirst 0.5
par dtnsim.node[7].dtn pFirstThreshold 0.1
par dtnsim.node[7].dtn ForwThresh 0
par dtnsim.node[7].dtn alpha 0.5
par dtnsim.node[7].dtn beta 0.9
par dtnsim.node[7].dtn gamma 0.999
par dtnsim.node[7].dtn delta 0.01
par dtnsim.node[7].dtn custodyReportByteSize 20
par dtnsim.node[7].dtn custodyTimeout 100
scalar dtnsim.node[7].dtn routeCgrRouteTableEntriesExplored:max 39
attr interpolationmode none
attr recordingmode max
attr source routeCgrRouteTableEntriesExplored
attr title "routeCgrRouteTableEntriesExplored, max"
scalar dtnsim.node[7].dtn routeCgrRouteTableEntriesExplored:sum 390
attr interpolationmode none
attr recordingmode sum
attr source routeCgrRouteTableEntriesExplored
attr title "routeCgrRouteTableEntriesExplored, sum"
scalar dtnsim.node[7].dtn routeCgrRouteTableEntriesCreated:max 39
attr interpolationmode none
attr recordingmode max
attr source routeCgrRouteTableEntriesCreated
attr title "routeCgrRouteTableEntriesCreated, max"
scalar dtnsim.node[7].dtn routeCgrRouteTableEntriesCreated:sum 39
attr interpolationmode none
attr recordingmode sum
attr source routeCgrRouteTableEntriesCreated
attr title "routeCgrRouteTableEntriesCreated, sum"
scalar dtnsim.node[7].dtn routeCgrDijkstraLoops:sum 1739
attr interpolationmode none
attr recordingmode sum
attr source routeCgrDijkstraLoops
attr title "routeCgrDijkstraLoops, sum"
scalar dtnsim.node[7].dtn routeCgrDijkstraCalls:sum 45
attr interpolationmode none
attr recordingmode sum
attr source routeCgrDijkstraCalls
attr title "routeCgrDijkstraCalls, sum"
scalar dtnsim.node[7].dtn sdrBytesStored:timeavg 377368.34490741
attr interpolationmode none
attr recordingmode timeavg
attr source sdrBytesStored
attr title "sdrBytesStored, timeavg"
scalar dtnsim.node[7].dtn sdrBytesStored:max 875000
attr interpolationmode none
attr recordingmode max
attr source sdrBytesStored
attr title "sdrBytesStored, max"
scalar dtnsim.node[7].dtn sdrBundleStored:timeavg 3.0189467592593
attr interpolationmode none
attr recordingmode timeavg
attr source sdrBundleStored
attr title "sdrBundleStored, timeavg"
scalar dtnsim.node[7].dtn sdrBundleStored:max 7
attr interpolationmode none
attr recordingmode max
attr source sdrBundleStored
attr title "sdrBundleStored, max"
scalar dtnsim.node[7].dtn dtnBundleReRouted:count 0
attr interpolationmode none
attr recordingmode count
attr source dtnBundleReRouted
attr title "dtnBundleReRouted, count"
scalar dtnsim.node[7].dtn dtnBundleReceivedFromApp:count 10
attr interpolationmode none
attr recordingmode count
attr source dtnBundleReceivedFromApp
attr title "dtnBundleReceivedFromApp, count"
scalar dtnsim.node[7].dtn dtnBundleReceivedFromCom:count 26
attr interpolationmode none
attr recordingmode count
attr source dtnBundleReceivedFromCom
attr title "dtnBundleReceivedFromCom, count"
statistic dtnsim.node[7].dtn dtnBundleSentToAppRevisitedHops:histogram
field count 9
field mean 0
field stddev 0
field min 0
field max 0
field sum 0
field sqrsum 0
attr interpolationmode none
attr recordingmode histogram
attr source dtnBundleSentToAppRevisitedHops
attr title dtnBundleSentToAppRevisitedHops
bin	-inf	0
bin	-0.5	0
bin	-0.48	0
bin	-0.46	0
bin	-0.44	0
bin	-0.42	0
bin	-0.4	0
bin	-0.38	0
bin	-0.36	0
bin	-0.34	0
bin	-0.32	0
bin	-0.3	0
bin	-0.28	0
bin	-0.26	0
bin	-0.24	0
bin	-0.22	0
bin	-0.2	0
bin	-0.18	0
bin	-0.16	0
bin	-0.14	0
bin	-0.12	0
bin	-0.1	0
bin	-0.08	0
bin	-0.06	0
bin	-0.04	0
bin	-0.02	0
bin	0	9
bin	0.02	0
bin	0.04	0
bin	0.06	0
bin	0.08	0
bin	0.1	0
bin	0.12	0
bin	0.14	0
bin	0.16	0
bin	0.18	0
bin	0.2	0
bin	0.22	0
bin	0.24	0
bin	0.26	0
bin	0.28	0
bin	0.3	0
bin	0.32	0
bin	0.34	0
bin	0.36	0
bin	0.38	0
bin	0.4	0
bin	0.42	0
bin	0.44	0
bin	0.46	0
bin	0.48	0
bin	0.5	0
statistic dtnsim.node[7].dtn dtnBundleSentToAppHopCount:histogram
field count 9
field mean 6.3333333333333
field stddev 4.7434164902526
field min 3
field max 18
field sum 57
field sqrsum 541
attr interpolationmode none
attr recordingmode histogram
attr source dtnBundleSentToAppHopCount
attr title dtnBundleSentToAppHopCount
bin	-inf	0
bin	0	0
bin	1	0
bin	2	0
bin	3	3
bin	4	1
bin	5	1
bin	6	1
bin	7	1
bin	8	1
bin	9	0
bin	10	0
bin	11	0
bin	12	0
bin	13	0
bin	14	0
bin	15	0
bin	16	0
bin	17	0
bin	18	1
bin	19	0
bin	20	0
bin	21	0
bin	22	0
scalar dtnsim.node[7].dtn dtnBundleSentToApp:count 9
attr interpolationmode none
attr recordingmode count
attr source dtnBundleSentToApp
attr title "dtnBundleSentToApp, count"
scalar dtnsim.node[7].dtn dtnBundleSentToCom:count 27
attr interpolationmode none
attr recordingmode count
attr source dtnBundleSentToCom
attr title "dtnBundleSentToCom, count"
par dtnsim.node[7].com typename "\"src.node.com.Com\""
par dtnsim.node[7].com packetLoss 0
par dtnsim.node[7].graphics typename "\"src.node.graphics.Graphics\""
par dtnsim.node[7].graphics enable true
par dtnsim.node[7].fault typename "\"src.node.fault.Fault\""
par dtnsim.node[7].fault enable false
par dtnsim.node[7].fault faultSeed 0
par dtnsim.node[7].fault meanTTF 0seconds
attr unit seconds
par dtnsim.node[7].fault meanTTR 0seconds
attr unit seconds
par dtnsim.node[7] typename "\"src.node.Node\""
par dtnsim.node[7] icon "\"antennatower\""
par dtnsim.node[8].app typename "\"src.node.app.App\""
par dtnsim.node[8].app enable true
par dtnsim.node[8].app destinationEid "\"48\""
par dtnsim.node[8].app bundlesNumber "\"10\""
par dtnsim.node[8].app size "\"125000\""
par dtnsim.node[8].app start "\"1\""
par dtnsim.node[8].app interval 3600
par dtnsim.node[8].app ttl 9e+06
par dtnsim.node[8].app returnToSender false
par dtnsim.node[8].app critical false
par dtnsim.node[8].app custodyTransfer false
par dtnsim.node[8].app externalTrafficEvents "\"\""
scalar dtnsim.node[8].app appBundleReceivedDelay:mean 17589.7
attr interpolationmode none
attr recordingmode mean
attr source appBundleReceivedDelay
attr title "appBundleReceivedDelay, mean"
scalar dtnsim.node[8].app appBundleReceivedDelay:max 34055
attr interpolationmode none
attr recordingmode max
attr source appBundleReceivedDelay
attr title "appBundleReceivedDelay, max"
scalar dtnsim.node[8].app appBundleReceivedDelay:min 337
attr interpolationmode none
attr recordingmode min
attr source appBundleReceivedDelay
attr title "appBundleReceivedDelay, min"
statistic dtnsim.node[8].app appBundleReceivedDelay:histogram
field count 10
field mean 17589.7
field stddev 11316.379024818
field min 337
field max 34055
field sum 175897
field sqrsum 4246519369
attr interpolationmode none
attr recordingmode histogram
attr source appBundleReceivedDelay
attr title appBundleReceivedDelay
bin	-inf	0
bin	0	1
bin	500	0
bin	1000	0
bin	1500	0
bin	2000	0
bin	2500	0
bin	3000	0
bin	3500	1
bin	4000	0
bin	4500	0
bin	5000	0
bin	5500	0
bin	6000	0
bin	6500	0
bin	7000	0
bin	7500	0
bin	8000	0
bin	8500	1
bin	9000	0
bin	9500	0
bin	10000	0
bin	10500	0
bin	11000	0
bin	11500	0
bin	12000	1
bin	12500	0
bin	13000	0
bin	13500	0
bin	14000	0
bin	14500	0
bin	15000	0
bin	15500	0
bin	16000	1
bin	16500	0
bin	17000	0
bin	17500	0
bin	18000	0
bin	18500	0
bin	19000	0
bin	19500	1
bin	20000	0
bin	20500	0
bin	21000	0
bin	21500	0
bin	22000	0
bin	22500	0
bin	23000	1
bin	23500	0
bin	24000	0
bin	24500	0
bin	25000	0
bin	25500	0
bin	26000	0
bin	26500	1
bin	27000	0
bin	27500	0
bin	28000	0
bin	28500	0
bin	29000	0
bin	29500	0
bin	30000	1
bin	30500	0
bin	31000	0
bin	31500	0
bin	32000	0
bin	32500	0
bin	33000	0
bin	33500	0
bin	34000	1
bin	34500	0
bin	35000	0
bin	35500	0
bin	36000	0
bin	36500	0
bin	37000	0
bin	37500	0
bin	38000	0
bin	38500	0
bin	39000	0
bin	39500	0
bin	40000	0
bin	40500	0
bin	41000	0
bin	41500	0
bin	42000	0
bin	42500	0
scalar dtnsim.node[8].app appBundleReceivedHops:mean 6.1
attr interpolationmode none
attr recordingmode mean
attr source appBundleReceivedHops
attr title "appBundleReceivedHops, mean"
scalar dtnsim.node[8].app appBundleReceivedHops:max 18
attr interpolationmode none
attr recordingmode max
attr source appBundleReceivedHops
attr title "appBundleReceivedHops, max"
scalar dtnsim.node[8].app appBundleReceivedHops:min 3
attr interpolationmode none
attr recordingmode min
attr source appBundleReceivedHops
attr title "appBundleReceivedHops, min"
statistic dtnsim.node[8].app appBundleReceivedHops:histogram
field count 10
field mean 6.1
field stddev 4.5325979795747
field min 3
field max 18
field sum 61
field sqrsum 557
attr interpolationmode none
attr recordingmode histogram
attr source appBundleReceivedHops
attr title appBundleReceivedHops
bin	-inf	0
bin	0	0
bin	1	0
bin	2	0
bin	3	3
bin	4	2
bin	5	1
bin	6	1
bin	7	1
bin	8	1
bin	9	0
bin	10	0
bin	11	0
bin	12	0
bin	13	0
bin	14	0
bin	15	0
bin	16	0
bin	17	0
bin	18	1
bin	19	0
bin	20	0
bin	21	0
bin	22	0
scalar dtnsim.node[8].app appBundleReceived:count 10
attr interpolationmode none
attr recordingmode count
attr source appBundleReceived
attr title "appBundleReceived, count"
scalar dtnsim.node[8].app appBundleSent:count 10
attr interpolationmode none
attr recordingmode count
attr source appBundleSent
attr title "appBundleSent, count"
par dtnsim.node[8].dtn typename "\"src.node.dtn.Dtn\""
par dtnsim.node[8].dtn routing "\"cgrModelRev17\""
par dtnsim.node[8].dtn routingType "\"routeListType:allPaths-initial+anchor,volumeAware:allContacts,extensionBlock:on,contactPlan:local\""
par dtnsim.node[8].dtn bundlesCopies 1
par dtnsim.node[8].dtn sContactProb 1
par dtnsim.node[8].dtn printRoutingDebug false
par dtnsim.node[8].dtn saveBundleMap false
par dtnsim.node[8].dtn sdrSize 0
par dtnsim.node[8].dtn frouting "\"\""
par dtnsim.node[8].dtn ts_duration -1
par dtnsim.node[8].dtn ts_start_times "\"\""
par dtnsim.node[8].dtn pEncouterMax 0.7
par dtnsim.node[8].dtn pEncouterFirst 0.5
par dtnsim.node[8].dtn pFirstThreshold 0.1
par dtnsim.node[8].dtn ForwThresh 0
par dtnsim.node[8].dtn alpha 0.5
par dtnsim.node[8].dtn beta 0.9
par dtnsim.node[8].dtn gamma 0.999
par dtnsim.node[8].dtn delta 0.01
par dtnsim.node[8].dtn custodyReportByteSize 20
par dtnsim.node[8].dtn custodyTimeout 100
scalar dtnsim.node[8].dtn routeCgrRouteTableEntriesExplored:max 88
attr interpolationmode none
attr recordingmode max
attr source routeCgrRouteTableEntriesExplored
attr title "routeCgrRouteTableEntriesExplored, max"
scalar dtnsim.node[8].dtn routeCgrRouteTableEntriesExplored:sum 880
attr interpolationmode none
attr recordingmode sum
attr source routeCgrRouteTableEntriesExplored
attr title "routeCgrRouteTableEntriesExplored, sum"
scalar dtnsim.node[8].dtn routeCgrRouteTableEntriesCreated:max 88
attr interpolationmode none
attr recordingmode max
attr source routeCgrRouteTableEntriesCreated
attr title "routeCgrRouteTableEntriesCreated, max"
scalar dtnsim.node[8].dtn routeCgrRouteTableEntriesCreated:sum 88
attr interpolationmode none
attr recordingmode sum
attr source routeCgrRouteTableEntriesCreated
attr title "routeCgrRouteTableEntriesCreated, sum"
scalar dtnsim.node[8].dtn routeCgrDijkstraLoops:sum 3241
attr interpolationmode none
attr recordingmode sum
attr source routeCgrDijkstraLoops
attr title "routeCgrDijkstraLoops, sum"
scalar dtnsim.node[8].dtn routeCgrDijkstraCalls:sum 116
attr interpolationmode none
attr recordingmode sum
attr source routeCgrDijkstraCalls
attr title "routeCgrDijkstraCalls, sum"
scalar dtnsim.node[8].dtn sdrBytesStored:timeavg 254181.13425926
attr interpolationmode none
attr recordingmode timeavg
attr source sdrBytesStored
attr title "sdrBytesStored, timeavg"
scalar dtnsim.node[8].dtn sdrBytesStored:max 1000000
attr interpolationmode none
attr recordingmode max
attr source sdrBytesStored
attr title "sdrBytesStored, max"
scalar dtnsim.node[8].dtn sdrBundleStored:timeavg 2.0334490740741
attr interpolationmode none
attr recordingmode timeavg
attr source sdrBundleStored
attr title "sdrBundleStored, timeavg"
scalar dtnsim.node[8].dtn sdrBundleStored:max 8
attr interpolationmode none
attr recordingmode max
attr source sdrBundleStored
attr title "sdrBundleStored, max"
scalar dtnsim.node[8].dtn dtnBundleReRouted:count 0
attr interpolationmode none
attr recordingmode count
attr source dtnBundleReRouted
attr title "dtnBundleReRouted, count"
scalar dtnsim.node[8].dtn dtnBundleReceivedFromApp:count 10
attr interpolationmode none
attr recordingmode count
attr source dtnBundleReceivedFromApp
attr title "dtnBundleReceivedFromApp, count"
scalar dtnsim.node[8].dtn dtnBundleReceivedFromCom:count 13
attr interpolationmode none
attr recordingmode count
attr source dtnBundleReceivedFromCom
attr title "dtnBundleReceivedFromCom, count"
statistic dtnsim.node[8].dtn dtnBundleSentToAppRevisitedHops:histogram
field count 10
field mean 0
field stddev 0
field min 0
field max 0
field sum 0
field sqrsum 0
attr interpolationmode none
attr recordingmode histogram
attr source dtnBundleSentToAppRevisitedHops
attr title dtnBundleSentToAppRevisitedHops
bin	-inf	0
bin	-0.5	0
bin	-0.48	0
bin	-0.46	0
bin	-0.44	0
bin	-0.42	0
bin	-0.4	0
bin	-0.38	0
bin	-0.36	0
bin	-0.34	0
bin	-0.32	0
bin	-0.3	0
bin	-0.28	0
bin	-0.26	0
bin	-0.24	0
bin	-0.22	0
bin	-0.2	0
bin	-0.18	0
bin	-0.16	0
bin	-0.14	0
bin	-0.12	0
bin	-0.1	0
bin	-0.08	0
bin	-0.06	0
bin	-0.04	0
bin	-0.02	0
bin	0	10
bin	0.02	0
bin	0.04	0
bin	0.06	0
bin	0.08	0
bin	0.1	0
bin	0.12	0
bin	0.14	0
bin	0.16	0
bin	0.18	0
bin	0.2	0
bin	0.22	0
bin	0.24	0
bin	0.26	0
bin	0.28	0
bin	0.3	0
bin	0.32	0
bin	0.34	0
bin	0.36	0
bin	0.38	0
bin	0.4	0
bin	0.42	0
bin	0.44	0
bin	0.46	0
bin	0.48	0
bin	0.5	0
statistic dtnsim.node[8].dtn dtnBundleSentToAppHopCount:histogram
field count 10
field mean 6.1
field stddev 4.5325979795747
field min 3
field max 18
field sum 61
field sqrsum 557
attr interpolationmode none
attr recordingmode histogram
attr source dtnBundleSentToAppHopCount
attr title dtnBundleSentToAppHopCount
bin	-inf	0
bin	0	0
bin	1	0
bin	2	0
bin	3	3
bin	4	2
bin	5	1
bin	6	1
bin	7	1
bin	8	1
bin	9	0
bin	10	0
bin	11	0
bin	12	0
bin	13	0
bin	14	0
bin	15	0
bin	16	0
bin	17	0
bin	18	1
bin	19	0
bin	20	0
bin	21	0
bin	22	0
scalar dtnsim.node[8].dtn dtnBundleSentToApp:count 10
attr interpolationmode none
attr recordingmode count
attr source dtnBundleSentToApp
attr title "dtnBundleSentToApp, count"
scalar dtnsim.node[8].dtn dtnBundleSentToCom:count 13
attr interpolationmode none
attr recordingmode count
attr source dtnBundleSentToCom
attr title "dtnBundleSentToCom, count"
par dtnsim.node[8].com typename "\"src.node.com.Com\""
par dtnsim.node[8].com packetLoss 0
par dtnsim.node[8].graphics typename "\"src.node.graphics.Graphics\""
par dtnsim.node[8].graphics enable true
par dtnsim.node[8].fault typename "\"src.node.fault.Fault\""
par dtnsim.node[8].fault enable false
par dtnsim.node[8].fault faultSeed 0
par dtnsim.node[8].fault meanTTF 0seconds
attr unit seconds
par dtnsim.node[8].fault meanTTR 0seconds
attr unit seconds
par dtnsim.node[8] typename "\"src.node.Node\""
par dtnsim.node[8] icon "\"antennatower\""
par dtnsim.node[9].app typename "\"src.node.app.App\""
par dtnsim.node[9].app enable true
par dtnsim.node[9].app destinationEid "\"48\""
par dtnsim.node[9].app bundlesNumber "\"10\""
par dtnsim.node[9].app size "\"125000\""
par dtnsim.node[9].app start "\"1\""
par dtnsim.node[9].app interval 3600
par dtnsim.node[9].app ttl 9e+06
par dtnsim.node[9].app returnToSender false
par dtnsim.node[9].app critical false
par dtnsim.node[9].app custodyTransfer false
par dtnsim.node[9].app externalTrafficEvents "\"\""
scalar dtnsim.node[9].app appBundleReceivedDelay:mean 26781
attr interpolationmode none
attr recordingmode mean
attr source appBundleReceivedDelay
attr title "appBundleReceivedDelay, mean"
scalar dtnsim.node[9].app appBundleReceivedDelay:max 42936
attr interpolationmode none
attr recordingmode max
attr source appBundleReceivedDelay
attr title "appBundleReceivedDelay, max"
scalar dtnsim.node[9].app appBundleReceivedDelay:min 10626
attr interpolationmode none
attr recordingmode min
attr source appBundleReceivedDelay
attr title "appBundleReceivedDelay, min"
statistic dtnsim.node[9].app appBundleReceivedDelay:histogram
field count 10
field mean 26781
field stddev 10870.000766636
field min 10626
field max 42936
field sum 267810
field sqrsum 8235631860
attr interpolationmode none
attr recordingmode histogram
attr source appBundleReceivedDelay
attr title appBundleReceivedDelay
bin	-inf	0
bin	2000	0
bin	3000	0
bin	4000	0
bin	5000	0
bin	6000	0
bin	7000	0
bin	8000	0
bin	9000	0
bin	10000	1
bin	11000	0
bin	12000	0
bin	13000	0
bin	14000	1
bin	15000	0
bin	16000	0
bin	17000	1
bin	18000	0
bin	19000	0
bin	20000	0
bin	21000	1
bin	22000	0
bin	23000	0
bin	24000	1
bin	25000	0
bin	26000	0
bin	27000	0
bin	28000	1
bin	29000	0
bin	30000	0
bin	31000	0
bin	32000	1
bin	33000	0
bin	34000	0
bin	35000	1
bin	36000	0
bin	37000	0
bin	38000	0
bin	39000	1
bin	40000	0
bin	41000	0
bin	42000	1
bin	43000	0
bin	44000	0
bin	45000	0
bin	46000	0
bin	47000	0
bin	48000	0
bin	49000	0
bin	50000	0
bin	51000	0
bin	52000	0
scalar dtnsim.node[9].app appBundleReceivedHops:mean 6.2
attr interpolationmode none
attr recordingmode mean
attr source appBundleReceivedHops
attr title "appBundleReceivedHops, mean"
scalar dtnsim.node[9].app appBundleReceivedHops:max 18
attr interpolationmode none
attr recordingmode max
attr source appBundleReceivedHops
attr title "appBundleReceivedHops, max"
scalar dtnsim.node[9].app appBundleReceivedHops:min 3
attr interpolationmode none
attr recordingmode min
attr source appBundleReceivedHops
attr title "appBundleReceivedHops, min"
statistic dtnsim.node[9].app appBundleReceivedHops:histogram
field count 10
field mean 6.2
field stddev 4.4919681407795
field min 3
field max 18
field sum 62
field sqrsum 566
attr interpolationmode none
attr recordingmode histogram
attr source appBundleReceivedHops
attr title appBundleReceivedHops
bin	-inf	0
bin	0	0
bin	1	0
bin	2	0
bin	3	3
bin	4	1
bin	5	2
bin	6	1
bin	7	1
bin	8	1
bin	9	0
bin	10	0
bin	11	0
bin	12	0
bin	13	0
bin	14	0
bin	15	0
bin	16	0
bin	17	0
bin	18	1
bin	19	0
bin	20	0
bin	21	0
bin	22	0
scalar dtnsim.node[9].app appBundleReceived:count 10
attr interpolationmode none
attr recordingmode count
attr source appBundleReceived
attr title "appBundleReceived, count"
scalar dtnsim.node[9].app appBundleSent:count 10
attr interpolationmode none
attr recordingmode count
attr source appBundleSent
attr title "appBundleSent, count"
par dtnsim.node[9].dtn typename "\"src.node.dtn.Dtn\""
par dtnsim.node[9].dtn routing "\"cgrModelRev17\""
par dtnsim.node[9].dtn routingType "\"routeListType:allPaths-initial+anchor,volumeAware:allContacts,extensionBlock:on,contactPlan:local\""
par dtnsim.node[9].dtn bundlesCopies 1
par dtnsim.node[9].dtn sContactProb 1
par dtnsim.node[9].dtn printRoutingDebug false
par dtnsim.node[9].dtn saveBundleMap false
par dtnsim.node[9].dtn sdrSize 0
par dtnsim.node[9].dtn frouting "\"\""
par dtnsim.node[9].dtn ts_duration -1
par dtnsim.node[9].dtn ts_start_times "\"\""
par dtnsim.node[9].dtn pEncouterMax 0.7
par dtnsim.node[9].dtn pEncouterFirst 0.5
par dtnsim.node[9].dtn pFirstThreshold 0.1
par dtnsim.node[9].dtn ForwThresh 0
par dtnsim.node[9].dtn alpha 0.5
par dtnsim.node[9].dtn beta 0.9
par dtnsim.node[9].dtn gamma 0.999
par dtnsim.node[9].dtn delta 0.01
par dtnsim.node[9].dtn custodyReportByteSize 20
par dtnsim.node[9].dtn custodyTimeout 100
scalar dtnsim.node[9].dtn routeCgrRouteTableEntriesExplored:max 11
attr interpolationmode none
attr recordingmode max
attr source routeCgrRouteTableEntriesExplored
attr title "routeCgrRouteTableEntriesExplored, max"
scalar dtnsim.node[9].dtn routeCgrRouteTableEntriesExplored:sum 110
attr interpolationmode none
attr recordingmode sum
attr source routeCgrRouteTableEntriesExplored
attr title "routeCgrRouteTableEntriesExplored, sum"
scalar dtnsim.node[9].dtn routeCgrRouteTableEntriesCreated:max 11
attr interpolationmode none
attr recordingmode max
attr source routeCgrRouteTableEntriesCreated
attr title "routeCgrRouteTableEntriesCreated, max"
scalar dtnsim.node[9].dtn routeCgrRouteTableEntriesCreated:sum 11
attr interpolationmode none
attr recordingmode sum
attr source routeCgrRouteTableEntriesCreated
attr title "routeCgrRouteTableEntriesCreated, sum"
scalar dtnsim.node[9].dtn routeCgrDijkstraLoops:sum 289
attr interpolationmode none
attr recordingmode sum
attr source routeCgrDijkstraLoops
attr title "routeCgrDijkstraLoops, sum"
scalar dtnsim.node[9].dtn routeCgrDijkstraCalls:sum 12
attr interpolationmode none
attr recordingmode sum
attr source routeCgrDijkstraCalls
attr title "routeCgrDijkstraCalls, sum"
scalar dtnsim.node[9].dtn sdrBytesStored:timeavg 387456.59722222
attr interpolationmode none
attr recordingmode timeavg
attr source sdrBytesStored
attr title "sdrBytesStored, timeavg"
scalar dtnsim.node[9].dtn sdrBytesStored:max 1250000
attr interpolationmode none
attr recordingmode max
attr source sdrBytesStored
attr title "sdrBytesStored, max"
scalar dtnsim.node[9].dtn sdrBundleStored:timeavg 3.0996527777778
[...]
attr title dtnBundleSentToAppHopCount
bin	-inf	0
bin	0	0
bin	1	0
scalar dtnsim.node[46].dtn dtnBundleSentToApp:count 0
attr interpolationmode none
attr recordingmode count
attr source dtnBundleSentToApp
attr title "dtnBundleSentToApp, count"
scalar dtnsim.node[46].dtn dtnBundleSentToCom:count 253
attr interpolationmode none
attr recordingmode count
attr source dtnBundleSentToCom
attr title "dtnBundleSentToCom, count"
par dtnsim.node[46].com typename "\"src.node.com.Com\""
par dtnsim.node[46].com packetLoss 0
par dtnsim.node[46].graphics typename "\"src.node.graphics.Graphics\""
par dtnsim.node[46].graphics enable true
par dtnsim.node[46].fault typename "\"src.node.fault.Fault\""
par dtnsim.node[46].fault enable false
par dtnsim.node[46].fault faultSeed 100
par dtnsim.node[46].fault meanTTF 100seconds
attr unit seconds
par dtnsim.node[46].fault meanTTR 300seconds
attr unit seconds
par dtnsim.node[46] typename "\"src.node.Node\""
par dtnsim.node[46] icon "\"satellite\""
par dtnsim.node[47].app typename "\"src.node.app.App\""
par dtnsim.node[47].app enable false
par dtnsim.node[47].app destinationEid "\"1\""
par dtnsim.node[47].app bundlesNumber "\"1\""
par dtnsim.node[47].app size "\"1024\""
par dtnsim.node[47].app start "\"0\""
par dtnsim.node[47].app interval 0
par dtnsim.node[47].app ttl 9e+06
par dtnsim.node[47].app returnToSender true
par dtnsim.node[47].app critical false
par dtnsim.node[47].app custodyTransfer false
par dtnsim.node[47].app externalTrafficEvents "\"\""
scalar dtnsim.node[47].app appBundleReceivedDelay:mean nan
attr interpolationmode none
attr recordingmode mean
attr source appBundleReceivedDelay
attr title "appBundleReceivedDelay, mean"
scalar dtnsim.node[47].app appBundleReceivedDelay:max nan
attr interpolationmode none
attr recordingmode max
attr source appBundleReceivedDelay
attr title "appBundleReceivedDelay, max"
scalar dtnsim.node[47].app appBundleReceivedDelay:min nan
attr interpolationmode none
attr recordingmode min
attr source appBundleReceivedDelay
attr title "appBundleReceivedDelay, min"
statistic dtnsim.node[47].app appBundleReceivedDelay:histogram
field count 0
field mean nan
field stddev nan
field min nan
field max nan
field sum 0
field sqrsum 0
attr interpolationmode none
attr recordingmode histogram
attr source appBundleReceivedDelay
attr title appBundleReceivedDelay
bin	-inf	0
bin	0	0
bin	1	0
scalar dtnsim.node[47].app appBundleReceivedHops:mean nan
attr interpolationmode none
attr recordingmode mean
attr source appBundleReceivedHops
attr title "appBundleReceivedHops, mean"
scalar dtnsim.node[47].app appBundleReceivedHops:max nan
attr interpolationmode none
attr recordingmode max
attr source appBundleReceivedHops
attr title "appBundleReceivedHops, max"
scalar dtnsim.node[47].app appBundleReceivedHops:min nan
attr interpolationmode none
attr recordingmode min
attr source appBundleReceivedHops
attr title "appBundleReceivedHops, min"
statistic dtnsim.node[47].app appBundleReceivedHops:histogram
field count 0
field mean nan
field stddev nan
field min nan
field max nan
field sum 0
field sqrsum 0
attr interpolationmode none
attr recordingmode histogram
attr source appBundleReceivedHops
attr title appBundleReceivedHops
bin	-inf	0
bin	0	0
bin	1	0
scalar dtnsim.node[47].app appBundleReceived:count 0
attr interpolationmode none
attr recordingmode count
attr source appBundleReceived
attr title "appBundleReceived, count"
scalar dtnsim.node[47].app appBundleSent:count 0
attr interpolationmode none
attr recordingmode count
attr source appBundleSent
attr title "appBundleSent, count"
par dtnsim.node[47].dtn typename "\"src.node.dtn.Dtn\""
par dtnsim.node[47].dtn routing "\"cgrModelRev17\""
par dtnsim.node[47].dtn routingType "\"routeListType:allPaths-initial+anchor,volumeAware:allContacts,extensionBlock:on,contactPlan:local\""
par dtnsim.node[47].dtn bundlesCopies 1
par dtnsim.node[47].dtn sContactProb 1
par dtnsim.node[47].dtn printRoutingDebug false
par dtnsim.node[47].dtn saveBundleMap false
par dtnsim.node[47].dtn sdrSize 0
par dtnsim.node[47].dtn frouting "\"\""
par dtnsim.node[47].dtn ts_duration -1
par dtnsim.node[47].dtn ts_start_times "\"\""
par dtnsim.node[47].dtn pEncouterMax 0.7
par dtnsim.node[47].dtn pEncouterFirst 0.5
par dtnsim.node[47].dtn pFirstThreshold 0.1
par dtnsim.node[47].dtn ForwThresh 0
par dtnsim.node[47].dtn alpha 0.5
par dtnsim.node[47].dtn beta 0.9
par dtnsim.node[47].dtn gamma 0.999
par dtnsim.node[47].dtn delta 0.01
par dtnsim.node[47].dtn custodyReportByteSize 20
par dtnsim.node[47].dtn custodyTimeout 100
scalar dtnsim.node[47].dtn routeCgrRouteTableEntriesExplored:max 70
attr interpolationmode none
attr recordingmode max
attr source routeCgrRouteTableEntriesExplored
attr title "routeCgrRouteTableEntriesExplored, max"
scalar dtnsim.node[47].dtn routeCgrRouteTableEntriesExplored:sum 4615
attr interpolationmode none
attr recordingmode sum
attr source routeCgrRouteTableEntriesExplored
attr title "routeCgrRouteTableEntriesExplored, sum"
scalar dtnsim.node[47].dtn routeCgrRouteTableEntriesCreated:max 70
attr interpolationmode none
attr recordingmode max
attr source routeCgrRouteTableEntriesCreated
attr title "routeCgrRouteTableEntriesCreated, max"
scalar dtnsim.node[47].dtn routeCgrRouteTableEntriesCreated:sum 83
attr interpolationmode none
attr recordingmode sum
attr source routeCgrRouteTableEntriesCreated
attr title "routeCgrRouteTableEntriesCreated, sum"
scalar dtnsim.node[47].dtn routeCgrDijkstraLoops:sum 3032
attr interpolationmode none
attr recordingmode sum
attr source routeCgrDijkstraLoops
attr title "routeCgrDijkstraLoops, sum"
scalar dtnsim.node[47].dtn routeCgrDijkstraCalls:sum 92
attr interpolationmode none
attr recordingmode sum
attr source routeCgrDijkstraCalls
attr title "routeCgrDijkstraCalls, sum"
scalar dtnsim.node[47].dtn sdrBytesStored:timeavg 5487246.8171296
attr interpolationmode none
attr recordingmode timeavg
attr source sdrBytesStored
attr title "sdrBytesStored, timeavg"
scalar dtnsim.node[47].dtn sdrBytesStored:max 15750000
attr interpolationmode none
attr recordingmode max
attr source sdrBytesStored
attr title "sdrBytesStored, max"
scalar dtnsim.node[47].dtn sdrBundleStored:timeavg 43.897974537037
attr interpolationmode none
attr recordingmode timeavg
attr source sdrBundleStored
attr title "sdrBundleStored, timeavg"
scalar dtnsim.node[47].dtn sdrBundleStored:max 126
attr interpolationmode none
attr recordingmode max
attr source sdrBundleStored
attr title "sdrBundleStored, max"
scalar dtnsim.node[47].dtn dtnBundleReRouted:count 1
attr interpolationmode none
attr recordingmode count
attr source dtnBundleReRouted
attr title "dtnBundleReRouted, count"
scalar dtnsim.node[47].dtn dtnBundleReceivedFromApp:count 0
attr interpolationmode none
attr recordingmode count
attr source dtnBundleReceivedFromApp
attr title "dtnBundleReceivedFromApp, count"
scalar dtnsim.node[47].dtn dtnBundleReceivedFromCom:count 379
attr interpolationmode none
attr recordingmode count
attr source dtnBundleReceivedFromCom
attr title "dtnBundleReceivedFromCom, count"
statistic dtnsim.node[47].dtn dtnBundleSentToAppRevisitedHops:histogram
field count 0
field mean nan
field stddev nan
field min nan
field max nan
field sum 0
field sqrsum 0
attr interpolationmode none
attr recordingmode histogram
attr source dtnBundleSentToAppRevisitedHops
attr title dtnBundleSentToAppRevisitedHops
bin	-inf	0
bin	0	0
bin	1	0
statistic dtnsim.node[47].dtn dtnBundleSentToAppHopCount:histogram
field count 0
field mean nan
field stddev nan
field min nan
field max nan
field sum 0
field sqrsum 0
attr interpolationmode none
attr recordingmode histogram
attr source dtnBundleSentToAppHopCount
attr title dtnBundleSentToAppHopCount
bin	-inf	0
bin	0	0
bin	1	0
scalar dtnsim.node[47].dtn dtnBundleSentToApp:count 0
attr interpolationmode none
attr recordingmode count
attr source dtnBundleSentToApp
attr title "dtnBundleSentToApp, count"
scalar dtnsim.node[47].dtn dtnBundleSentToCom:count 370
attr interpolationmode none
attr recordingmode count
attr source dtnBundleSentToCom
attr title "dtnBundleSentToCom, count"
par dtnsim.node[47].com typename "\"src.node.com.Com\""
par dtnsim.node[47].com packetLoss 0
par dtnsim.node[47].graphics typename "\"src.node.graphics.Graphics\""
par dtnsim.node[47].graphics enable true
par dtnsim.node[47].fault typename "\"src.node.fault.Fault\""
par dtnsim.node[47].fault enable false
par dtnsim.node[47].fault faultSeed 100
par dtnsim.node[47].fault meanTTF 100seconds
attr unit seconds
par dtnsim.node[47].fault meanTTR 300seconds
attr unit seconds
par dtnsim.node[47] typename "\"src.node.Node\""
par dtnsim.node[47] icon "\"satellite\""
par dtnsim.node[48].app typename "\"src.node.app.App\""
par dtnsim.node[48].app enable true
par dtnsim.node[48].app destinationEid "\"7,8,9,10,11,12,13,14,15,16,17,18,19,20,21,22,23,24,25,26,27,28,29,30,31\""
par dtnsim.node[48].app bundlesNumber "\"10,10,10,10,10,10,10,10,10,10,10,10,10,10,10,10,10,10,10,10,10,10,10,10,10\""
par dtnsim.node[48].app size "\"125000,125000,125000,125000,125000,125000,125000,125000,125000,125000,125000,125000,125000,125000,125000,125000,125000,125000,125000,125000,125000,125000,125000,125000,125000\""
par dtnsim.node[48].app start "\"1,1,1,1,1,1,1,1,1,1,1,1,1,1,1,1,1,1,1,1,1,1,1,1,1\""
par dtnsim.node[48].app interval 3600
par dtnsim.node[48].app ttl 9e+06
par dtnsim.node[48].app returnToSender false
par dtnsim.node[48].app critical false
par dtnsim.node[48].app custodyTransfer false
par dtnsim.node[48].app externalTrafficEvents "\"\""
scalar dtnsim.node[48].app appBundleReceivedDelay:mean 27640.574903382
attr interpolationmode none
attr recordingmode mean
attr source appBundleReceivedDelay
attr title "appBundleReceivedDelay, mean"
scalar dtnsim.node[48].app appBundleReceivedDelay:max 80232.001
attr interpolationmode none
attr recordingmode max
attr source appBundleReceivedDelay
attr title "appBundleReceivedDelay, max"
scalar dtnsim.node[48].app appBundleReceivedDelay:min 307
attr interpolationmode none
attr recordingmode min
attr source appBundleReceivedDelay
attr title "appBundleReceivedDelay, min"
statistic dtnsim.node[48].app appBundleReceivedDelay:histogram
field count 207
field mean 27640.574903382
field stddev 15046.506229749
field min 307
field max 80232.001
field sum 5721599.005
field sqrsum 204786139907.52
attr interpolationmode none
attr recordingmode histogram
attr source appBundleReceivedDelay
attr title appBundleReceivedDelay
bin	-inf	0
bin	0	5
bin	2000	4
bin	4000	1
bin	6000	8
bin	8000	5
bin	10000	12
bin	12000	6
bin	14000	13
bin	16000	6
bin	18000	13
bin	20000	6
bin	22000	6
bin	24000	11
bin	26000	9
bin	28000	12
bin	30000	13
bin	32000	6
bin	34000	14
bin	36000	9
bin	38000	8
bin	40000	9
bin	42000	9
bin	44000	3
bin	46000	5
bin	48000	1
bin	50000	3
bin	52000	0
bin	54000	3
bin	56000	0
bin	58000	1
bin	60000	0
bin	62000	1
bin	64000	1
bin	66000	0
bin	68000	1
bin	70000	0
bin	72000	1
bin	74000	0
bin	76000	1
bin	78000	0
bin	80000	1
bin	82000	0
bin	84000	0
bin	86000	0
bin	88000	0
bin	90000	0
bin	92000	0
bin	94000	0
bin	96000	0
bin	98000	0
bin	100000	0
bin	102000	0
scalar dtnsim.node[48].app appBundleReceivedHops:mean 5.6328502415459
attr interpolationmode none
attr recordingmode mean
attr source appBundleReceivedHops
attr title "appBundleReceivedHops, mean"
scalar dtnsim.node[48].app appBundleReceivedHops:max 27
attr interpolationmode none
attr recordingmode max
attr source appBundleReceivedHops
attr title "appBundleReceivedHops, max"
scalar dtnsim.node[48].app appBundleReceivedHops:min 3
attr interpolationmode none
attr recordingmode min
attr source appBundleReceivedHops
attr title "appBundleReceivedHops, min"
statistic dtnsim.node[48].app appBundleReceivedHops:histogram
field count 207
field mean 5.6328502415459
field stddev 3.9067384022331
field min 3
field max 27
field sum 1166
field sqrsum 9712
attr interpolationmode none
attr recordingmode histogram
attr source appBundleReceivedHops
attr title appBundleReceivedHops
bin	-inf	0
bin	0	0
bin	1	0
bin	2	0
bin	3	94
bin	4	10
bin	5	39
bin	6	16
bin	7	7
bin	8	8
bin	9	3
bin	10	7
bin	11	2
bin	12	2
bin	13	3
bin	14	6
bin	15	4
bin	16	0
bin	17	3
bin	18	2
bin	19	0
bin	20	0
bin	21	0
bin	22	0
bin	23	0
bin	24	0
bin	25	0
bin	26	0
bin	27	1
bin	28	0
scalar dtnsim.node[48].app appBundleReceived:count 207
attr interpolationmode none
attr recordingmode count
attr source appBundleReceived
attr title "appBundleReceived, count"
scalar dtnsim.node[48].app appBundleSent:count 250
attr interpolationmode none
attr recordingmode count
attr source appBundleSent
attr title "appBundleSent, count"
par dtnsim.node[48].dtn typename "\"src.node.dtn.Dtn\""
par dtnsim.node[48].dtn routing "\"cgrModelRev17\""
par dtnsim.node[48].dtn routingType "\"routeListType:allPaths-initial+anchor,volumeAware:allContacts,extensionBlock:on,contactPlan:local\""
par dtnsim.node[48].dtn bundlesCopies 1
par dtnsim.node[48].dtn sContactProb 1
par dtnsim.node[48].dtn printRoutingDebug false
par dtnsim.node[48].dtn saveBundleMap false
par dtnsim.node[48].dtn sdrSize 0
par dtnsim.node[48].dtn frouting "\"\""
par dtnsim.node[48].dtn ts_duration -1
par dtnsim.node[48].dtn ts_start_times "\"\""
par dtnsim.node[48].dtn pEncouterMax 0.7
par dtnsim.node[48].dtn pEncouterFirst 0.5
par dtnsim.node[48].dtn pFirstThreshold 0.1
par dtnsim.node[48].dtn ForwThresh 0
par dtnsim.node[48].dtn alpha 0.5
par dtnsim.node[48].dtn beta 0.9
par dtnsim.node[48].dtn gamma 0.999
par dtnsim.node[48].dtn delta 0.01
par dtnsim.node[48].dtn custodyReportByteSize 20
par dtnsim.node[48].dtn custodyTimeout 100
scalar dtnsim.node[48].dtn routeCgrRouteTableEntriesExplored:max 100
attr interpolationmode none
attr recordingmode max
attr source routeCgrRouteTableEntriesExplored
attr title "routeCgrRouteTableEntriesExplored, max"
scalar dtnsim.node[48].dtn routeCgrRouteTableEntriesExplored:sum 18370
attr interpolationmode none
attr recordingmode sum
attr source routeCgrRouteTableEntriesExplored
attr title "routeCgrRouteTableEntriesExplored, sum"
scalar dtnsim.node[48].dtn routeCgrRouteTableEntriesCreated:max 100
attr interpolationmode none
attr recordingmode max
attr source routeCgrRouteTableEntriesCreated
attr title "routeCgrRouteTableEntriesCreated, max"
scalar dtnsim.node[48].dtn routeCgrRouteTableEntriesCreated:sum 1837
attr interpolationmode none
attr recordingmode sum
attr source routeCgrRouteTableEntriesCreated
attr title "routeCgrRouteTableEntriesCreated, sum"
scalar dtnsim.node[48].dtn routeCgrDijkstraLoops:sum 231129
attr interpolationmode none
attr recordingmode sum
attr source routeCgrDijkstraLoops
attr title "routeCgrDijkstraLoops, sum"
scalar dtnsim.node[48].dtn routeCgrDijkstraCalls:sum 1989
attr interpolationmode none
attr recordingmode sum
attr source routeCgrDijkstraCalls
attr title "routeCgrDijkstraCalls, sum"
scalar dtnsim.node[48].dtn sdrBytesStored:timeavg 3880148.0989583
attr interpolationmode none
attr recordingmode timeavg
attr source sdrBytesStored
attr title "sdrBytesStored, timeavg"
scalar dtnsim.node[48].dtn sdrBytesStored:max 6500000
attr interpolationmode none
attr recordingmode max
attr source sdrBytesStored
attr title "sdrBytesStored, max"
scalar dtnsim.node[48].dtn sdrBundleStored:timeavg 31.041184791667
attr interpolationmode none
attr recordingmode timeavg
attr source sdrBundleStored
attr title "sdrBundleStored, timeavg"
scalar dtnsim.node[48].dtn sdrBundleStored:max 52
attr interpolationmode none
attr recordingmode max
attr source sdrBundleStored
attr title "sdrBundleStored, max"
scalar dtnsim.node[48].dtn dtnBundleReRouted:count 0
attr interpolationmode none
attr recordingmode count
attr source dtnBundleReRouted
attr title "dtnBundleReRouted, count"
scalar dtnsim.node[48].dtn dtnBundleReceivedFromApp:count 250
attr interpolationmode none
attr recordingmode count
attr source dtnBundleReceivedFromApp
attr title "dtnBundleReceivedFromApp, count"
scalar dtnsim.node[48].dtn dtnBundleReceivedFromCom:count 207
attr interpolationmode none
attr recordingmode count
attr source dtnBundleReceivedFromCom
attr title "dtnBundleReceivedFromCom, count"
statistic dtnsim.node[48].dtn dtnBundleSentToAppRevisitedHops:histogram
field count 207
field mean 0.067632850241546
field stddev 0.83913137039423
field min 0
field max 12
field sum 14
field sqrsum 146
attr interpolationmode none
attr recordingmode histogram
attr source dtnBundleSentToAppRevisitedHops
attr title dtnBundleSentToAppRevisitedHops
bin	-inf	0
bin	-0.5	0
bin	-0.28	0
bin	-0.06	204
bin	0.16	0
bin	0.38	0
bin	0.6	0
bin	0.82	2
bin	1.04	0
bin	1.26	0
bin	1.48	0
bin	1.7	0
bin	1.92	0
bin	2.14	0
bin	2.36	0
bin	2.58	0
bin	2.8	0
bin	3.02	0
bin	3.24	0
bin	3.46	0
bin	3.68	0
bin	3.9	0
bin	4.12	0
bin	4.34	0
bin	4.56	0
bin	4.78	0
bin	5	0
bin	5.22	0
bin	5.44	0
bin	5.66	0
bin	5.88	0
bin	6.1	0
bin	6.32	0
bin	6.54	0
bin	6.76	0
bin	6.98	0
bin	7.2	0
bin	7.42	0
bin	7.64	0
bin	7.86	0
bin	8.08	0
bin	8.3	0
bin	8.52	0
bin	8.74	0
bin	8.96	0
bin	9.18	0
bin	9.4	0
bin	9.62	0
bin	9.84	0
bin	10.06	0
bin	10.28	0
bin	10.5	0
bin	10.72	0
bin	10.94	0
bin	11.16	0
bin	11.38	0
bin	11.6	0
bin	11.82	1
bin	12.04	0
statistic dtnsim.node[48].dtn dtnBundleSentToAppHopCount:histogram
field count 207
field mean 5.6328502415459
field stddev 3.9067384022331
field min 3
field max 27
field sum 1166
field sqrsum 9712
attr interpolationmode none
attr recordingmode histogram
attr source dtnBundleSentToAppHopCount
attr title dtnBundleSentToAppHopCount
bin	-inf	0
bin	0	0
bin	1	0
bin	2	0
bin	3	94
bin	4	10
bin	5	39
bin	6	16
bin	7	7
bin	8	8
bin	9	3
bin	10	7
bin	11	2
bin	12	2
bin	13	3
bin	14	6
bin	15	4
bin	16	0
bin	17	3
bin	18	2
bin	19	0
bin	20	0
bin	21	0
bin	22	0
bin	23	0
bin	24	0
bin	25	0
bin	26	0
bin	27	1
bin	28	0
scalar dtnsim.node[48].dtn dtnBundleSentToApp:count 207
attr interpolationmode none
attr recordingmode count
attr source dtnBundleSentToApp
attr title "dtnBundleSentToApp, count"
scalar dtnsim.node[48].dtn dtnBundleSentToCom:count 207
attr interpolationmode none
attr recordingmode count
attr source dtnBundleSentToCom
attr title "dtnBundleSentToCom, count"
par dtnsim.node[48].com typename "\"src.node.com.Com\""
par dtnsim.node[48].com packetLoss 0
par dtnsim.node[48].graphics typename "\"src.node.graphics.Graphics\""
par dtnsim.node[48].graphics enable true
par dtnsim.node[48].fault typename "\"src.node.fault.Fault\""
par dtnsim.node[48].fault enable false
par dtnsim.node[48].fault faultSeed 0
par dtnsim.node[48].fault meanTTF 0seconds
attr unit seconds
par dtnsim.node[48].fault meanTTR 0seconds
attr unit seconds
par dtnsim.node[48] typename "\"src.node.Node\""
par dtnsim.node[48] icon "\"server2\""
par dtnsim.central typename "\"src.central.Central\""
par dtnsim.central saveTopology false
par dtnsim.central saveFlows false
par dtnsim.central saveLpFlows false
par dtnsim.central contactsFile "\"contactPlan/RingRoad_16sats_ATrack_6hotspots_simtime24hs_comrange1000km.txt\""
par dtnsim.central enableAvailableRoutesCalculation false
par dtnsim.central deleteNContacts 0
par dtnsim.central useSpecificFailureProbabilities false
par dtnsim.central failureProbability 0
par dtnsim.central contactIdsToDelete "\"\""
par dtnsim.central useCentrality false
par dtnsim.central faultsAware true
par dtnsim.central mode 1
par dtnsim.central useUncertainty false
par dtnsim.central collectorPath "\"\""
par dtnsim.central repetition 0
scalar dtnsim.central pairsOfNodesWithAtLeastOneRoute:sum 0
attr interpolationmode none
attr recordingmode sum
attr source pairsOfNodesWithAtLeastOneRoute
attr title "pairsOfNodesWithAtLeastOneRoute, sum"
scalar dtnsim.central availableRoutes:sum 0
attr interpolationmode none
attr recordingmode sum
attr source availableRoutes
attr title "availableRoutes, sum"
scalar dtnsim.central totalRoutes:sum 0
attr interpolationmode none
attr recordingmode sum
attr source totalRoutes
attr title "totalRoutes, sum"
scalar dtnsim.central contactsNumber:sum 1512
attr interpolationmode none
attr recordingmode sum
attr source contactsNumber
attr title "contactsNumber, sum"
par dtnsim typename "\"src.dtnsim\""
par dtnsim nodesNumber 48

