file 3265 1643582705                                            
version 2
run General-0-20220130-23:44:44-161021
attr configname General
attr datetime 20220130-23:44:44
attr experiment General
attr inifile example1.ini
attr iterationvars ""
attr iterationvarsf ""
attr measurement ""
attr network src.dtnsim
attr processid 161021
attr repetition 0
attr replication #0
attr resultdir results
attr runnumber 0
attr seedset 0
param dtnsim.nodesNumber 5
param dtnsim.node[1..3].icon "\"satellite\""
param dtnsim.node[*].fault.enable false
param dtnsim.node[*].fault.faultSeed 0*10
param dtnsim.node[*].fault.meanTTF 20s
param dtnsim.node[*].fault.meanTTR 5s
param dtnsim.node[*].dtn.routing "\"uncertainUniboCgr\""
param dtnsim.node[*].dtn.routingType "\"routeListType:allPaths-initial+anchor,volumeAware:allContacts,extensionBlock:on,contactPlan:local\""
param dtnsim.node[*].dtn.printRoutingDebug true
param dtnsim.central.contactsFile "\"contactPlan/contactPlan.txt\""
param dtnsim.central.useSpecificFailureProbabilities true
param dtnsim.node[*].dtn.saveBundleMap true
param dtnsim.central.saveTopology true
param dtnsim.central.saveFlows true
param dtnsim.node[1].app.enable true
param dtnsim.node[1].app.returnToSender false
param dtnsim.node[1].app.bundlesNumber "\"1\""
param dtnsim.node[1].app.start "\"0\""
param dtnsim.node[1].app.destinationEid "\"4\""
param dtnsim.node[1].app.size "\"1000\""

vector 0 dtnsim.node[1].dtn sdrBundleStored:vector ETV
attr interpolationmode none
attr source sdrBundleStored
attr title "sdrBundleStored, vector"
vector 1 dtnsim.node[1].dtn sdrBytesStored:vector ETV
attr interpolationmode none
attr source sdrBytesStored
attr title "sdrBytesStored, vector"
vector 2 dtnsim.node[2].dtn sdrBundleStored:vector ETV
attr interpolationmode none
attr source sdrBundleStored
attr title "sdrBundleStored, vector"
vector 3 dtnsim.node[2].dtn sdrBytesStored:vector ETV
attr interpolationmode none
attr source sdrBytesStored
attr title "sdrBytesStored, vector"
vector 4 dtnsim.node[3].dtn sdrBundleStored:vector ETV
attr interpolationmode none
attr source sdrBundleStored
attr title "sdrBundleStored, vector"
vector 5 dtnsim.node[3].dtn sdrBytesStored:vector ETV
attr interpolationmode none
attr source sdrBytesStored
attr title "sdrBytesStored, vector"
vector 6 dtnsim.node[4].dtn sdrBundleStored:vector ETV
attr interpolationmode none
attr source sdrBundleStored
attr title "sdrBundleStored, vector"
vector 7 dtnsim.node[4].dtn sdrBytesStored:vector ETV
attr interpolationmode none
attr source sdrBytesStored
attr title "sdrBytesStored, vector"
vector 8 dtnsim.node[5].dtn sdrBundleStored:vector ETV
attr interpolationmode none
attr source sdrBundleStored
attr title "sdrBundleStored, vector"
vector 9 dtnsim.node[5].dtn sdrBytesStored:vector ETV
attr interpolationmode none
attr source sdrBytesStored
attr title "sdrBytesStored, vector"
vector 10 dtnsim.node[4].dtn dtnBundleSentToAppHopCount:vector ETV
attr interpolationmode none
attr source dtnBundleSentToAppHopCount
attr title "dtnBundleSentToAppHopCount, vector"
0	2987 35 0 35 0 120 4 0 1 1 1
1	3022 38 0 35 0 120 4 0 1000 1000 1000000
2	3060 19 0 35 0 120 2 0 0 0 0
3	3079 19 0 35 0 120 2 0 0 0 0
4	3098 19 0 35 0 120 2 0 0 0 0
5	3117 19 0 35 0 120 2 0 0 0 0
6	3136 19 0 35 0 120 2 0 0 0 0
7	3155 19 0 35 0 120 2 0 0 0 0
8	3174 38 0 35 0 120 4 0 1 1 1
9	3212 41 0 35 0 120 4 0 1000 1000 1000000
10	3253 11 30 30 40 40 1 2 2 2 4

