version 3
run General-2-20230408-19:32:52-46975
attr configname General
attr datetime 20230408-19:32:52
attr datetimef 20230408-193252
attr experiment General
attr inifile example1.ini
attr iterationvars ""
attr iterationvarsd ""
attr iterationvarsf ""
attr measurement ""
attr network src.dtnsim
attr processid 46975
attr repetition 2
attr replication #2
attr resultdir results
attr runnumber 2
attr seedset 2
config network src.dtnsim
config repeat 5
config sim-time-limit 200s
config dtnsim.nodesNumber 15
config dtnsim.node[1..3].icon "\"satellite\""
config dtnsim.node[*].fault.enable false
config dtnsim.node[*].fault.faultSeed 2*10
config dtnsim.node[*].fault.meanTTF 20s
config dtnsim.node[*].fault.meanTTR 5s
config dtnsim.node[*].dtn.routing "\"uncertainUniboCgr\""
config dtnsim.node[*].dtn.routingType "\"routeListType:allPaths-initial+anchor,volumeAware:allContacts,extensionBlock:on,contactPlan:local\""
config dtnsim.node[*].dtn.printRoutingDebug true
config dtnsim.central.contactsFile "\"contactPlan/contactPlan.txt\""
config dtnsim.central.useSpecificFailureProbabilities true
config dtnsim.central.failureProbability 20
config dtnsim.central.mode 0
config dtnsim.central.useUncertainty true
config dtnsim.central.collectorPath "\"../../../experiment_results/simulation_3\""
config seed-set 2
config dtnsim.node[*].dtn.saveBundleMap true
config dtnsim.central.saveTopology true
config dtnsim.central.saveFlows true
config dtnsim.node[3].app.enable true
config dtnsim.node[3].app.returnToSender false
config dtnsim.node[3].app.bundlesNumber "\"1\""
config dtnsim.node[3].app.start "\"45\""
config dtnsim.node[3].app.destinationEid "\"7\""
config dtnsim.node[3].app.size "\"0\""
config dtnsim.node[8].app.enable true
config dtnsim.node[8].app.returnToSender false
config dtnsim.node[8].app.bundlesNumber "\"1, 1\""
config dtnsim.node[8].app.start "\"30, 20\""
config dtnsim.node[8].app.destinationEid "\"3, 4\""
config dtnsim.node[8].app.size "\"0, 0\""
config dtnsim.node[7].app.enable true
config dtnsim.node[7].app.returnToSender false
config dtnsim.node[7].app.bundlesNumber "\"1\""
config dtnsim.node[7].app.start "\"0\""
config dtnsim.node[7].app.destinationEid "\"5\""
config dtnsim.node[7].app.size "\"0\""
config dtnsim.node[11].app.enable true
config dtnsim.node[11].app.returnToSender false
config dtnsim.node[11].app.bundlesNumber "\"1\""
config dtnsim.node[11].app.start "\"80\""
config dtnsim.node[11].app.destinationEid "\"1\""
config dtnsim.node[11].app.size "\"0\""
config dtnsim.node[12].app.enable true
config dtnsim.node[12].app.returnToSender false
config dtnsim.node[12].app.bundlesNumber "\"1\""
config dtnsim.node[12].app.start "\"10\""
config dtnsim.node[12].app.destinationEid "\"5\""
config dtnsim.node[12].app.size "\"0\""
config dtnsim.node[10].app.enable true
config dtnsim.node[10].app.returnToSender false
config dtnsim.node[10].app.bundlesNumber "\"1\""
config dtnsim.node[10].app.start "\"30\""
config dtnsim.node[10].app.destinationEid "\"7\""
config dtnsim.node[10].app.size "\"0\""
config dtnsim.node[4].app.enable true
config dtnsim.node[4].app.returnToSender false
config dtnsim.node[4].app.bundlesNumber "\"1\""
config dtnsim.node[4].app.start "\"85\""
config dtnsim.node[4].app.destinationEid "\"3\""
config dtnsim.node[4].app.size "\"0\""

par dtnsim.node[0].app typename "\"src.node.app.App\""
par dtnsim.node[0].app enable false
par dtnsim.node[0].app destinationEid "\"1\""
par dtnsim.node[0].app bundlesNumber "\"1\""
par dtnsim.node[0].app size "\"1024\""
par dtnsim.node[0].app start "\"0\""
par dtnsim.node[0].app interval 0
par dtnsim.node[0].app ttl 9e+06
par dtnsim.node[0].app returnToSender true
par dtnsim.node[0].app critical false
par dtnsim.node[0].app custodyTransfer false
par dtnsim.node[0].app externalTrafficEvents "\"\""
scalar dtnsim.node[0].app appBundleReceivedDelay:mean nan
attr interpolationmode none
attr recordingmode mean
attr source appBundleReceivedDelay
attr title "appBundleReceivedDelay, mean"
scalar dtnsim.node[0].app appBundleReceivedDelay:max nan
attr interpolationmode none
attr recordingmode max
attr source appBundleReceivedDelay
attr title "appBundleReceivedDelay, max"
scalar dtnsim.node[0].app appBundleReceivedDelay:min nan
attr interpolationmode none
attr recordingmode min
attr source appBundleReceivedDelay
attr title "appBundleReceivedDelay, min"
statistic dtnsim.node[0].app appBundleReceivedDelay:histogram
field count 0
field mean nan
field stddev nan
field min nan
field max nan
field sum 0
field sqrsum 0
attr interpolationmode none
attr recordingmode histogram
attr source appBundleReceivedDelay
attr title appBundleReceivedDelay
bin	-inf	0
bin	0	0
bin	1	0
scalar dtnsim.node[0].app appBundleReceivedHops:mean nan
attr interpolationmode none
attr recordingmode mean
attr source appBundleReceivedHops
attr title "appBundleReceivedHops, mean"
scalar dtnsim.node[0].app appBundleReceivedHops:max nan
attr interpolationmode none
attr recordingmode max
attr source appBundleReceivedHops
attr title "appBundleReceivedHops, max"
scalar dtnsim.node[0].app appBundleReceivedHops:min nan
attr interpolationmode none
attr recordingmode min
attr source appBundleReceivedHops
attr title "appBundleReceivedHops, min"
statistic dtnsim.node[0].app appBundleReceivedHops:histogram
field count 0
field mean nan
field stddev nan
field min nan
field max nan
field sum 0
field sqrsum 0
attr interpolationmode none
attr recordingmode histogram
attr source appBundleReceivedHops
attr title appBundleReceivedHops
bin	-inf	0
bin	0	0
bin	1	0
scalar dtnsim.node[0].app appBundleReceived:count 0
attr interpolationmode none
attr recordingmode count
attr source appBundleReceived
attr title "appBundleReceived, count"
scalar dtnsim.node[0].app appBundleSent:count 0
attr interpolationmode none
attr recordingmode count
attr source appBundleSent
attr title "appBundleSent, count"
par dtnsim.node[0].dtn typename "\"src.node.dtn.Dtn\""
par dtnsim.node[0].dtn routing "\"uncertainUniboCgr\""
par dtnsim.node[0].dtn routingType "\"routeListType:allPaths-initial+anchor,volumeAware:allContacts,extensionBlock:on,contactPlan:local\""
par dtnsim.node[0].dtn bundlesCopies 1
par dtnsim.node[0].dtn sContactProb 1
par dtnsim.node[0].dtn printRoutingDebug true
par dtnsim.node[0].dtn saveBundleMap true
par dtnsim.node[0].dtn sdrSize 0
par dtnsim.node[0].dtn frouting "\"\""
par dtnsim.node[0].dtn ts_duration -1
par dtnsim.node[0].dtn ts_start_times "\"\""
par dtnsim.node[0].dtn pEncouterMax 0.7
par dtnsim.node[0].dtn pEncouterFirst 0.5
par dtnsim.node[0].dtn pFirstThreshold 0.1
par dtnsim.node[0].dtn ForwThresh 0
par dtnsim.node[0].dtn alpha 0.5
par dtnsim.node[0].dtn beta 0.9
par dtnsim.node[0].dtn gamma 0.999
par dtnsim.node[0].dtn delta 0.01
par dtnsim.node[0].dtn custodyReportByteSize 20
par dtnsim.node[0].dtn custodyTimeout 100
scalar dtnsim.node[0].dtn routeCgrRouteTableEntriesExplored:max nan
attr interpolationmode none
attr recordingmode max
attr source routeCgrRouteTableEntriesExplored
attr title "routeCgrRouteTableEntriesExplored, max"
scalar dtnsim.node[0].dtn routeCgrRouteTableEntriesExplored:sum 0
attr interpolationmode none
attr recordingmode sum
attr source routeCgrRouteTableEntriesExplored
attr title "routeCgrRouteTableEntriesExplored, sum"
scalar dtnsim.node[0].dtn routeCgrRouteTableEntriesCreated:max nan
attr interpolationmode none
attr recordingmode max
attr source routeCgrRouteTableEntriesCreated
attr title "routeCgrRouteTableEntriesCreated, max"
scalar dtnsim.node[0].dtn routeCgrRouteTableEntriesCreated:sum 0
attr interpolationmode none
attr recordingmode sum
attr source routeCgrRouteTableEntriesCreated
attr title "routeCgrRouteTableEntriesCreated, sum"
scalar dtnsim.node[0].dtn routeCgrDijkstraLoops:sum 0
attr interpolationmode none
attr recordingmode sum
attr source routeCgrDijkstraLoops
attr title "routeCgrDijkstraLoops, sum"
scalar dtnsim.node[0].dtn routeCgrDijkstraCalls:sum 0
attr interpolationmode none
attr recordingmode sum
attr source routeCgrDijkstraCalls
attr title "routeCgrDijkstraCalls, sum"
scalar dtnsim.node[0].dtn sdrBytesStored:timeavg nan
attr interpolationmode none
attr recordingmode timeavg
attr source sdrBytesStored
attr title "sdrBytesStored, timeavg"
scalar dtnsim.node[0].dtn sdrBytesStored:max nan
attr interpolationmode none
attr recordingmode max
attr source sdrBytesStored
attr title "sdrBytesStored, max"
scalar dtnsim.node[0].dtn sdrBundleStored:timeavg nan
attr interpolationmode none
attr recordingmode timeavg
attr source sdrBundleStored
attr title "sdrBundleStored, timeavg"
scalar dtnsim.node[0].dtn sdrBundleStored:max nan
attr interpolationmode none
attr recordingmode max
attr source sdrBundleStored
attr title "sdrBundleStored, max"
scalar dtnsim.node[0].dtn dtnBundleReRouted:count 0
attr interpolationmode none
attr recordingmode count
attr source dtnBundleReRouted
attr title "dtnBundleReRouted, count"
scalar dtnsim.node[0].dtn dtnBundleReceivedFromApp:count 0
attr interpolationmode none
attr recordingmode count
attr source dtnBundleReceivedFromApp
attr title "dtnBundleReceivedFromApp, count"
scalar dtnsim.node[0].dtn dtnBundleReceivedFromCom:count 0
attr interpolationmode none
attr recordingmode count
attr source dtnBundleReceivedFromCom
attr title "dtnBundleReceivedFromCom, count"
statistic dtnsim.node[0].dtn dtnBundleSentToAppRevisitedHops:histogram
field count 0
field mean nan
field stddev nan
field min nan
field max nan
field sum 0
field sqrsum 0
attr interpolationmode none
attr recordingmode histogram
attr source dtnBundleSentToAppRevisitedHops
attr title dtnBundleSentToAppRevisitedHops
bin	-inf	0
bin	0	0
bin	1	0
statistic dtnsim.node[0].dtn dtnBundleSentToAppHopCount:histogram
field count 0
field mean nan
field stddev nan
field min nan
field max nan
field sum 0
field sqrsum 0
attr interpolationmode none
attr recordingmode histogram
attr source dtnBundleSentToAppHopCount
attr title dtnBundleSentToAppHopCount
bin	-inf	0
bin	0	0
bin	1	0
scalar dtnsim.node[0].dtn dtnBundleSentToApp:count 0
attr interpolationmode none
attr recordingmode count
attr source dtnBundleSentToApp
attr title "dtnBundleSentToApp, count"
scalar dtnsim.node[0].dtn dtnBundleSentToCom:count 0
attr interpolationmode none
attr recordingmode count
attr source dtnBundleSentToCom
attr title "dtnBundleSentToCom, count"
par dtnsim.node[0].com typename "\"src.node.com.Com\""
par dtnsim.node[0].com packetLoss 0
par dtnsim.node[0].graphics typename "\"src.node.graphics.Graphics\""
par dtnsim.node[0].graphics enable true
par dtnsim.node[0].fault typename "\"src.node.fault.Fault\""
par dtnsim.node[0].fault enable false
par dtnsim.node[0].fault faultSeed 20
par dtnsim.node[0].fault meanTTF 20seconds
attr unit seconds
par dtnsim.node[0].fault meanTTR 5seconds
attr unit seconds
par dtnsim.node[0] typename "\"src.node.Node\""
par dtnsim.node[0] icon "\"satellite\""
par dtnsim.node[1].app typename "\"src.node.app.App\""
par dtnsim.node[1].app enable false
par dtnsim.node[1].app destinationEid "\"1\""
par dtnsim.node[1].app bundlesNumber "\"1\""
par dtnsim.node[1].app size "\"1024\""
par dtnsim.node[1].app start "\"0\""
par dtnsim.node[1].app interval 0
par dtnsim.node[1].app ttl 9e+06
par dtnsim.node[1].app returnToSender true
par dtnsim.node[1].app critical false
par dtnsim.node[1].app custodyTransfer false
par dtnsim.node[1].app externalTrafficEvents "\"\""
scalar dtnsim.node[1].app appBundleReceivedDelay:mean 80
attr interpolationmode none
attr recordingmode mean
attr source appBundleReceivedDelay
attr title "appBundleReceivedDelay, mean"
scalar dtnsim.node[1].app appBundleReceivedDelay:max 80
attr interpolationmode none
attr recordingmode max
attr source appBundleReceivedDelay
attr title "appBundleReceivedDelay, max"
scalar dtnsim.node[1].app appBundleReceivedDelay:min 80
attr interpolationmode none
attr recordingmode min
attr source appBundleReceivedDelay
attr title "appBundleReceivedDelay, min"
statistic dtnsim.node[1].app appBundleReceivedDelay:histogram
field count 1
field mean 80
field stddev nan
field min 80
field max 80
field sum 80
field sqrsum 6400
attr interpolationmode none
attr recordingmode histogram
attr source appBundleReceivedDelay
attr title appBundleReceivedDelay
bin	-inf	0
bin	79	0
bin	80	1
bin	81	0
scalar dtnsim.node[1].app appBundleReceivedHops:mean 3
attr interpolationmode none
attr recordingmode mean
attr source appBundleReceivedHops
attr title "appBundleReceivedHops, mean"
scalar dtnsim.node[1].app appBundleReceivedHops:max 3
attr interpolationmode none
attr recordingmode max
attr source appBundleReceivedHops
attr title "appBundleReceivedHops, max"
scalar dtnsim.node[1].app appBundleReceivedHops:min 3
attr interpolationmode none
attr recordingmode min
attr source appBundleReceivedHops
attr title "appBundleReceivedHops, min"
statistic dtnsim.node[1].app appBundleReceivedHops:histogram
field count 1
field mean 3
field stddev nan
field min 3
field max 3
field sum 3
field sqrsum 9
attr interpolationmode none
attr recordingmode histogram
attr source appBundleReceivedHops
attr title appBundleReceivedHops
bin	-inf	0
bin	2	0
bin	3	1
bin	4	0
scalar dtnsim.node[1].app appBundleReceived:count 1
attr interpolationmode none
attr recordingmode count
attr source appBundleReceived
attr title "appBundleReceived, count"
scalar dtnsim.node[1].app appBundleSent:count 0
attr interpolationmode none
attr recordingmode count
attr source appBundleSent
attr title "appBundleSent, count"
par dtnsim.node[1].dtn typename "\"src.node.dtn.Dtn\""
par dtnsim.node[1].dtn routing "\"uncertainUniboCgr\""
par dtnsim.node[1].dtn routingType "\"routeListType:allPaths-initial+anchor,volumeAware:allContacts,extensionBlock:on,contactPlan:local\""
par dtnsim.node[1].dtn bundlesCopies 1
par dtnsim.node[1].dtn sContactProb 1
par dtnsim.node[1].dtn printRoutingDebug true
par dtnsim.node[1].dtn saveBundleMap true
par dtnsim.node[1].dtn sdrSize 0
par dtnsim.node[1].dtn frouting "\"\""
par dtnsim.node[1].dtn ts_duration -1
par dtnsim.node[1].dtn ts_start_times "\"\""
par dtnsim.node[1].dtn pEncouterMax 0.7
par dtnsim.node[1].dtn pEncouterFirst 0.5
par dtnsim.node[1].dtn pFirstThreshold 0.1
par dtnsim.node[1].dtn ForwThresh 0
par dtnsim.node[1].dtn alpha 0.5
par dtnsim.node[1].dtn beta 0.9
par dtnsim.node[1].dtn gamma 0.999
par dtnsim.node[1].dtn delta 0.01
par dtnsim.node[1].dtn custodyReportByteSize 20
par dtnsim.node[1].dtn custodyTimeout 100
scalar dtnsim.node[1].dtn routeCgrRouteTableEntriesExplored:max nan
attr interpolationmode none
attr recordingmode max
attr source routeCgrRouteTableEntriesExplored
attr title "routeCgrRouteTableEntriesExplored, max"
scalar dtnsim.node[1].dtn routeCgrRouteTableEntriesExplored:sum 0
attr interpolationmode none
attr recordingmode sum
attr source routeCgrRouteTableEntriesExplored
attr title "routeCgrRouteTableEntriesExplored, sum"
scalar dtnsim.node[1].dtn routeCgrRouteTableEntriesCreated:max nan
attr interpolationmode none
attr recordingmode max
attr source routeCgrRouteTableEntriesCreated
attr title "routeCgrRouteTableEntriesCreated, max"
scalar dtnsim.node[1].dtn routeCgrRouteTableEntriesCreated:sum 0
attr interpolationmode none
attr recordingmode sum
attr source routeCgrRouteTableEntriesCreated
attr title "routeCgrRouteTableEntriesCreated, sum"
scalar dtnsim.node[1].dtn routeCgrDijkstraLoops:sum 0
attr interpolationmode none
attr recordingmode sum
attr source routeCgrDijkstraLoops
attr title "routeCgrDijkstraLoops, sum"
scalar dtnsim.node[1].dtn routeCgrDijkstraCalls:sum 0
attr interpolationmode none
attr recordingmode sum
attr source routeCgrDijkstraCalls
attr title "routeCgrDijkstraCalls, sum"
scalar dtnsim.node[1].dtn sdrBytesStored:timeavg 0
attr interpolationmode none
attr recordingmode timeavg
attr source sdrBytesStored
attr title "sdrBytesStored, timeavg"
scalar dtnsim.node[1].dtn sdrBytesStored:max 0
attr interpolationmode none
attr recordingmode max
attr source sdrBytesStored
attr title "sdrBytesStored, max"
scalar dtnsim.node[1].dtn sdrBundleStored:timeavg 0.075
attr interpolationmode none
attr recordingmode timeavg
attr source sdrBundleStored
attr title "sdrBundleStored, timeavg"
scalar dtnsim.node[1].dtn sdrBundleStored:max 1
attr interpolationmode none
attr recordingmode max
attr source sdrBundleStored
attr title "sdrBundleStored, max"
scalar dtnsim.node[1].dtn dtnBundleReRouted:count 0
attr interpolationmode none
attr recordingmode count
attr source dtnBundleReRouted
attr title "dtnBundleReRouted, count"
scalar dtnsim.node[1].dtn dtnBundleReceivedFromApp:count 0
attr interpolationmode none
attr recordingmode count
attr source dtnBundleReceivedFromApp
attr title "dtnBundleReceivedFromApp, count"
scalar dtnsim.node[1].dtn dtnBundleReceivedFromCom:count 3
attr interpolationmode none
attr recordingmode count
attr source dtnBundleReceivedFromCom
attr title "dtnBundleReceivedFromCom, count"
statistic dtnsim.node[1].dtn dtnBundleSentToAppRevisitedHops:histogram
field count 1
field mean 0
field stddev nan
field min 0
field max 0
field sum 0
field sqrsum 0
attr interpolationmode none
attr recordingmode histogram
attr source dtnBundleSentToAppRevisitedHops
attr title dtnBundleSentToAppRevisitedHops
bin	-inf	0
bin	-0.5	0
bin	-0.48	0
bin	-0.46	0
bin	-0.44	0
bin	-0.42	0
bin	-0.4	0
bin	-0.38	0
bin	-0.36	0
bin	-0.34	0
bin	-0.32	0
bin	-0.3	0
bin	-0.28	0
bin	-0.26	0
bin	-0.24	0
bin	-0.22	0
bin	-0.2	0
bin	-0.18	0
bin	-0.16	0
bin	-0.14	0
bin	-0.12	0
bin	-0.1	0
bin	-0.08	0
bin	-0.06	0
bin	-0.04	0
bin	-0.02	0
bin	0	1
bin	0.02	0
bin	0.04	0
bin	0.06	0
bin	0.08	0
bin	0.1	0
bin	0.12	0
bin	0.14	0
bin	0.16	0
bin	0.18	0
bin	0.2	0
bin	0.22	0
bin	0.24	0
bin	0.26	0
bin	0.28	0
bin	0.3	0
bin	0.32	0
bin	0.34	0
bin	0.36	0
bin	0.38	0
bin	0.4	0
bin	0.42	0
bin	0.44	0
bin	0.46	0
bin	0.48	0
bin	0.5	0
statistic dtnsim.node[1].dtn dtnBundleSentToAppHopCount:histogram
field count 1
field mean 3
field stddev nan
field min 3
field max 3
field sum 3
field sqrsum 9
attr interpolationmode none
attr recordingmode histogram
attr source dtnBundleSentToAppHopCount
attr title dtnBundleSentToAppHopCount
bin	-inf	0
bin	2	0
bin	3	1
bin	4	0
scalar dtnsim.node[1].dtn dtnBundleSentToApp:count 1
attr interpolationmode none
attr recordingmode count
attr source dtnBundleSentToApp
attr title "dtnBundleSentToApp, count"
scalar dtnsim.node[1].dtn dtnBundleSentToCom:count 2
attr interpolationmode none
attr recordingmode count
attr source dtnBundleSentToCom
attr title "dtnBundleSentToCom, count"
par dtnsim.node[1].com typename "\"src.node.com.Com\""
par dtnsim.node[1].com packetLoss 0
par dtnsim.node[1].graphics typename "\"src.node.graphics.Graphics\""
par dtnsim.node[1].graphics enable true
par dtnsim.node[1].fault typename "\"src.node.fault.Fault\""
par dtnsim.node[1].fault enable false
par dtnsim.node[1].fault faultSeed 20
par dtnsim.node[1].fault meanTTF 20seconds
attr unit seconds
par dtnsim.node[1].fault meanTTR 5seconds
attr unit seconds
par dtnsim.node[1] typename "\"src.node.Node\""
par dtnsim.node[1] icon "\"satellite\""
par dtnsim.node[2].app typename "\"src.node.app.App\""
par dtnsim.node[2].app enable false
par dtnsim.node[2].app destinationEid "\"1\""
par dtnsim.node[2].app bundlesNumber "\"1\""
par dtnsim.node[2].app size "\"1024\""
par dtnsim.node[2].app start "\"0\""
par dtnsim.node[2].app interval 0
par dtnsim.node[2].app ttl 9e+06
par dtnsim.node[2].app returnToSender true
par dtnsim.node[2].app critical false
par dtnsim.node[2].app custodyTransfer false
par dtnsim.node[2].app externalTrafficEvents "\"\""
scalar dtnsim.node[2].app appBundleReceivedDelay:mean nan
attr interpolationmode none
attr recordingmode mean
attr source appBundleReceivedDelay
attr title "appBundleReceivedDelay, mean"
scalar dtnsim.node[2].app appBundleReceivedDelay:max nan
attr interpolationmode none
attr recordingmode max
attr source appBundleReceivedDelay
attr title "appBundleReceivedDelay, max"
scalar dtnsim.node[2].app appBundleReceivedDelay:min nan
attr interpolationmode none
attr recordingmode min
attr source appBundleReceivedDelay
attr title "appBundleReceivedDelay, min"
statistic dtnsim.node[2].app appBundleReceivedDelay:histogram
field count 0
field mean nan
field stddev nan
field min nan
field max nan
field sum 0
field sqrsum 0
attr interpolationmode none
attr recordingmode histogram
attr source appBundleReceivedDelay
attr title appBundleReceivedDelay
bin	-inf	0
bin	0	0
bin	1	0
scalar dtnsim.node[2].app appBundleReceivedHops:mean nan
attr interpolationmode none
attr recordingmode mean
attr source appBundleReceivedHops
attr title "appBundleReceivedHops, mean"
scalar dtnsim.node[2].app appBundleReceivedHops:max nan
attr interpolationmode none
attr recordingmode max
attr source appBundleReceivedHops
attr title "appBundleReceivedHops, max"
scalar dtnsim.node[2].app appBundleReceivedHops:min nan
attr interpolationmode none
attr recordingmode min
attr source appBundleReceivedHops
attr title "appBundleReceivedHops, min"
statistic dtnsim.node[2].app appBundleReceivedHops:histogram
field count 0
field mean nan
field stddev nan
field min nan
field max nan
field sum 0
field sqrsum 0
attr interpolationmode none
attr recordingmode histogram
attr source appBundleReceivedHops
attr title appBundleReceivedHops
bin	-inf	0
bin	0	0
bin	1	0
scalar dtnsim.node[2].app appBundleReceived:count 0
attr interpolationmode none
attr recordingmode count
attr source appBundleReceived
attr title "appBundleReceived, count"
scalar dtnsim.node[2].app appBundleSent:count 0
attr interpolationmode none
attr recordingmode count
attr source appBundleSent
attr title "appBundleSent, count"
par dtnsim.node[2].dtn typename "\"src.node.dtn.Dtn\""
par dtnsim.node[2].dtn routing "\"uncertainUniboCgr\""
par dtnsim.node[2].dtn routingType "\"routeListType:allPaths-initial+anchor,volumeAware:allContacts,extensionBlock:on,contactPlan:local\""
par dtnsim.node[2].dtn bundlesCopies 1
par dtnsim.node[2].dtn sContactProb 1
par dtnsim.node[2].dtn printRoutingDebug true
par dtnsim.node[2].dtn saveBundleMap true
par dtnsim.node[2].dtn sdrSize 0
par dtnsim.node[2].dtn frouting "\"\""
par dtnsim.node[2].dtn ts_duration -1
par dtnsim.node[2].dtn ts_start_times "\"\""
par dtnsim.node[2].dtn pEncouterMax 0.7
par dtnsim.node[2].dtn pEncouterFirst 0.5
par dtnsim.node[2].dtn pFirstThreshold 0.1
par dtnsim.node[2].dtn ForwThresh 0
par dtnsim.node[2].dtn alpha 0.5
par dtnsim.node[2].dtn beta 0.9
par dtnsim.node[2].dtn gamma 0.999
par dtnsim.node[2].dtn delta 0.01
par dtnsim.node[2].dtn custodyReportByteSize 20
par dtnsim.node[2].dtn custodyTimeout 100
scalar dtnsim.node[2].dtn routeCgrRouteTableEntriesExplored:max nan
attr interpolationmode none
attr recordingmode max
attr source routeCgrRouteTableEntriesExplored
attr title "routeCgrRouteTableEntriesExplored, max"
scalar dtnsim.node[2].dtn routeCgrRouteTableEntriesExplored:sum 0
attr interpolationmode none
attr recordingmode sum
attr source routeCgrRouteTableEntriesExplored
attr title "routeCgrRouteTableEntriesExplored, sum"
scalar dtnsim.node[2].dtn routeCgrRouteTableEntriesCreated:max nan
attr interpolationmode none
attr recordingmode max
attr source routeCgrRouteTableEntriesCreated
attr title "routeCgrRouteTableEntriesCreated, max"
scalar dtnsim.node[2].dtn routeCgrRouteTableEntriesCreated:sum 0
attr interpolationmode none
attr recordingmode sum
attr source routeCgrRouteTableEntriesCreated
attr title "routeCgrRouteTableEntriesCreated, sum"
scalar dtnsim.node[2].dtn routeCgrDijkstraLoops:sum 0
attr interpolationmode none
attr recordingmode sum
attr source routeCgrDijkstraLoops
attr title "routeCgrDijkstraLoops, sum"
scalar dtnsim.node[2].dtn routeCgrDijkstraCalls:sum 0
attr interpolationmode none
attr recordingmode sum
attr source routeCgrDijkstraCalls
attr title "routeCgrDijkstraCalls, sum"
scalar dtnsim.node[2].dtn sdrBytesStored:timeavg 0
attr interpolationmode none
attr recordingmode timeavg
attr source sdrBytesStored
attr title "sdrBytesStored, timeavg"
scalar dtnsim.node[2].dtn sdrBytesStored:max 0
attr interpolationmode none
attr recordingmode max
attr source sdrBytesStored
attr title "sdrBytesStored, max"
scalar dtnsim.node[2].dtn sdrBundleStored:timeavg 2.25
attr interpolationmode none
attr recordingmode timeavg
attr source sdrBundleStored
attr title "sdrBundleStored, timeavg"
scalar dtnsim.node[2].dtn sdrBundleStored:max 5
attr interpolationmode none
attr recordingmode max
attr source sdrBundleStored
attr title "sdrBundleStored, max"
scalar dtnsim.node[2].dtn dtnBundleReRouted:count 0
attr interpolationmode none
attr recordingmode count
attr source dtnBundleReRouted
attr title "dtnBundleReRouted, count"
scalar dtnsim.node[2].dtn dtnBundleReceivedFromApp:count 0
attr interpolationmode none
attr recordingmode count
attr source dtnBundleReceivedFromApp
attr title "dtnBundleReceivedFromApp, count"
scalar dtnsim.node[2].dtn dtnBundleReceivedFromCom:count 5
attr interpolationmode none
attr recordingmode count
attr source dtnBundleReceivedFromCom
attr title "dtnBundleReceivedFromCom, count"
statistic dtnsim.node[2].dtn dtnBundleSentToAppRevisitedHops:histogram
field count 0
field mean nan
field stddev nan
field min nan
field max nan
field sum 0
field sqrsum 0
attr interpolationmode none
attr recordingmode histogram
attr source dtnBundleSentToAppRevisitedHops
attr title dtnBundleSentToAppRevisitedHops
bin	-inf	0
bin	0	0
bin	1	0
statistic dtnsim.node[2].dtn dtnBundleSentToAppHopCount:histogram
field count 0
field mean nan
field stddev nan
field min nan
field max nan
field sum 0
field sqrsum 0
attr interpolationmode none
attr recordingmode histogram
attr source dtnBundleSentToAppHopCount
attr title dtnBundleSentToAppHopCount
bin	-inf	0
bin	0	0
bin	1	0
scalar dtnsim.node[2].dtn dtnBundleSentToApp:count 0
attr interpolationmode none
attr recordingmode count
attr source dtnBundleSentToApp
attr title "dtnBundleSentToApp, count"
scalar dtnsim.node[2].dtn dtnBundleSentToCom:count 3
attr interpolationmode none
attr recordingmode count
attr source dtnBundleSentToCom
attr title "dtnBundleSentToCom, count"
par dtnsim.node[2].com typename "\"src.node.com.Com\""
par dtnsim.node[2].com packetLoss 0
par dtnsim.node[2].graphics typename "\"src.node.graphics.Graphics\""
par dtnsim.node[2].graphics enable true
par dtnsim.node[2].fault typename "\"src.node.fault.Fault\""
par dtnsim.node[2].fault enable false
par dtnsim.node[2].fault faultSeed 20
par dtnsim.node[2].fault meanTTF 20seconds
attr unit seconds
par dtnsim.node[2].fault meanTTR 5seconds
attr unit seconds
par dtnsim.node[2] typename "\"src.node.Node\""
par dtnsim.node[2] icon "\"satellite\""
par dtnsim.node[3].app typename "\"src.node.app.App\""
par dtnsim.node[3].app enable true
par dtnsim.node[3].app destinationEid "\"7\""
par dtnsim.node[3].app bundlesNumber "\"1\""
par dtnsim.node[3].app size "\"0\""
par dtnsim.node[3].app start "\"45\""
par dtnsim.node[3].app interval 0
par dtnsim.node[3].app ttl 9e+06
par dtnsim.node[3].app returnToSender false
par dtnsim.node[3].app critical false
par dtnsim.node[3].app custodyTransfer false
par dtnsim.node[3].app externalTrafficEvents "\"\""
scalar dtnsim.node[3].app appBundleReceivedDelay:mean 62.5
attr interpolationmode none
attr recordingmode mean
attr source appBundleReceivedDelay
attr title "appBundleReceivedDelay, mean"
scalar dtnsim.node[3].app appBundleReceivedDelay:max 90
attr interpolationmode none
attr recordingmode max
attr source appBundleReceivedDelay
attr title "appBundleReceivedDelay, max"
scalar dtnsim.node[3].app appBundleReceivedDelay:min 35
attr interpolationmode none
attr recordingmode min
attr source appBundleReceivedDelay
attr title "appBundleReceivedDelay, min"
statistic dtnsim.node[3].app appBundleReceivedDelay:histogram
field count 2
field mean 62.5
field stddev 38.89087296526
field min 35
field max 90
field sum 125
field sqrsum 9325
attr interpolationmode none
attr recordingmode histogram
attr source appBundleReceivedDelay
attr title appBundleReceivedDelay
bin	-inf	0
bin	21	0
bin	22	0
bin	23	0
bin	24	0
bin	25	0
bin	26	0
bin	27	0
bin	28	0
bin	29	0
bin	30	0
bin	31	0
bin	32	0
bin	33	0
bin	34	0
bin	35	1
bin	36	0
bin	37	0
bin	38	0
bin	39	0
bin	40	0
bin	41	0
bin	42	0
bin	43	0
bin	44	0
bin	45	0
bin	46	0
bin	47	0
bin	48	0
bin	49	0
bin	50	0
bin	51	0
bin	52	0
bin	53	0
bin	54	0
bin	55	0
bin	56	0
bin	57	0
bin	58	0
bin	59	0
bin	60	0
bin	61	0
bin	62	0
bin	63	0
bin	64	0
bin	65	0
bin	66	0
bin	67	0
bin	68	0
bin	69	0
bin	70	0
bin	71	0
bin	72	0
bin	73	0
bin	74	0
bin	75	0
bin	76	0
bin	77	0
bin	78	0
bin	79	0
bin	80	0
bin	81	0
bin	82	0
bin	83	0
bin	84	0
bin	85	0
bin	86	0
bin	87	0
bin	88	0
bin	89	0
bin	90	1
bin	91	0
bin	92	0
bin	93	0
bin	94	0
bin	95	0
bin	96	0
bin	97	0
bin	98	0
bin	99	0
bin	100	0
bin	101	0
bin	102	0
bin	103	0
bin	104	0
scalar dtnsim.node[3].app appBundleReceivedHops:mean 2.5
attr interpolationmode none
attr recordingmode mean
attr source appBundleReceivedHops
attr title "appBundleReceivedHops, mean"
scalar dtnsim.node[3].app appBundleReceivedHops:max 3
attr interpolationmode none
attr recordingmode max
attr source appBundleReceivedHops
attr title "appBundleReceivedHops, max"
scalar dtnsim.node[3].app appBundleReceivedHops:min 2
attr interpolationmode none
attr recordingmode min
attr source appBundleReceivedHops
attr title "appBundleReceivedHops, min"
statistic dtnsim.node[3].app appBundleReceivedHops:histogram
field count 2
field mean 2.5
field stddev 0.70710678118655
field min 2
field max 3
field sum 5
field sqrsum 13
attr interpolationmode none
attr recordingmode histogram
attr source appBundleReceivedHops
attr title appBundleReceivedHops
bin	-inf	0
bin	1	0
bin	2	1
bin	3	1
bin	4	0
scalar dtnsim.node[3].app appBundleReceived:count 2
attr interpolationmode none
attr recordingmode count
attr source appBundleReceived
attr title "appBundleReceived, count"
scalar dtnsim.node[3].app appBundleSent:count 1
attr interpolationmode none
attr recordingmode count
attr source appBundleSent
attr title "appBundleSent, count"
par dtnsim.node[3].dtn typename "\"src.node.dtn.Dtn\""
par dtnsim.node[3].dtn routing "\"uncertainUniboCgr\""
par dtnsim.node[3].dtn routingType "\"routeListType:allPaths-initial+anchor,volumeAware:allContacts,extensionBlock:on,contactPlan:local\""
par dtnsim.node[3].dtn bundlesCopies 1
par dtnsim.node[3].dtn sContactProb 1
par dtnsim.node[3].dtn printRoutingDebug true
par dtnsim.node[3].dtn saveBundleMap true
par dtnsim.node[3].dtn sdrSize 0
par dtnsim.node[3].dtn frouting "\"\""
par dtnsim.node[3].dtn ts_duration -1
par dtnsim.node[3].dtn ts_start_times "\"\""
par dtnsim.node[3].dtn pEncouterMax 0.7
par dtnsim.node[3].dtn pEncouterFirst 0.5
par dtnsim.node[3].dtn pFirstThreshold 0.1
par dtnsim.node[3].dtn ForwThresh 0
par dtnsim.node[3].dtn alpha 0.5
par dtnsim.node[3].dtn beta 0.9
par dtnsim.node[3].dtn gamma 0.999
par dtnsim.node[3].dtn delta 0.01
par dtnsim.node[3].dtn custodyReportByteSize 20
par dtnsim.node[3].dtn custodyTimeout 100
scalar dtnsim.node[3].dtn routeCgrRouteTableEntriesExplored:max nan
attr interpolationmode none
attr recordingmode max
attr source routeCgrRouteTableEntriesExplored
attr title "routeCgrRouteTableEntriesExplored, max"
scalar dtnsim.node[3].dtn routeCgrRouteTableEntriesExplored:sum 0
attr interpolationmode none
attr recordingmode sum
attr source routeCgrRouteTableEntriesExplored
attr title "routeCgrRouteTableEntriesExplored, sum"
scalar dtnsim.node[3].dtn routeCgrRouteTableEntriesCreated:max nan
attr interpolationmode none
attr recordingmode max
attr source routeCgrRouteTableEntriesCreated
attr title "routeCgrRouteTableEntriesCreated, max"
scalar dtnsim.node[3].dtn routeCgrRouteTableEntriesCreated:sum 0
attr interpolationmode none
attr recordingmode sum
attr source routeCgrRouteTableEntriesCreated
attr title "routeCgrRouteTableEntriesCreated, sum"
scalar dtnsim.node[3].dtn routeCgrDijkstraLoops:sum 0
attr interpolationmode none
attr recordingmode sum
attr source routeCgrDijkstraLoops
attr title "routeCgrDijkstraLoops, sum"
scalar dtnsim.node[3].dtn routeCgrDijkstraCalls:sum 0
attr interpolationmode none
attr recordingmode sum
attr source routeCgrDijkstraCalls
attr title "routeCgrDijkstraCalls, sum"
scalar dtnsim.node[3].dtn sdrBytesStored:timeavg 0
attr interpolationmode none
attr recordingmode timeavg
attr source sdrBytesStored
attr title "sdrBytesStored, timeavg"
scalar dtnsim.node[3].dtn sdrBytesStored:max 0
attr interpolationmode none
attr recordingmode max
attr source sdrBytesStored
attr title "sdrBytesStored, max"
scalar dtnsim.node[3].dtn sdrBundleStored:timeavg 1.975
attr interpolationmode none
attr recordingmode timeavg
attr source sdrBundleStored
attr title "sdrBundleStored, timeavg"
scalar dtnsim.node[3].dtn sdrBundleStored:max 4
attr interpolationmode none
attr recordingmode max
attr source sdrBundleStored
attr title "sdrBundleStored, max"
scalar dtnsim.node[3].dtn dtnBundleReRouted:count 0
attr interpolationmode none
attr recordingmode count
attr source dtnBundleReRouted
attr title "dtnBundleReRouted, count"
scalar dtnsim.node[3].dtn dtnBundleReceivedFromApp:count 1
attr interpolationmode none
attr recordingmode count
attr source dtnBundleReceivedFromApp
attr title "dtnBundleReceivedFromApp, count"
scalar dtnsim.node[3].dtn dtnBundleReceivedFromCom:count 5
attr interpolationmode none
attr recordingmode count
attr source dtnBundleReceivedFromCom
attr title "dtnBundleReceivedFromCom, count"
statistic dtnsim.node[3].dtn dtnBundleSentToAppRevisitedHops:histogram
field count 2
field mean 0
field stddev 0
field min 0
field max 0
field sum 0
field sqrsum 0
attr interpolationmode none
attr recordingmode histogram
attr source dtnBundleSentToAppRevisitedHops
attr title dtnBundleSentToAppRevisitedHops
bin	-inf	0
bin	-0.5	0
bin	-0.48	0
bin	-0.46	0
bin	-0.44	0
bin	-0.42	0
bin	-0.4	0
bin	-0.38	0
bin	-0.36	0
bin	-0.34	0
bin	-0.32	0
bin	-0.3	0
bin	-0.28	0
bin	-0.26	0
bin	-0.24	0
bin	-0.22	0
bin	-0.2	0
bin	-0.18	0
bin	-0.16	0
bin	-0.14	0
bin	-0.12	0
bin	-0.1	0
bin	-0.08	0
bin	-0.06	0
bin	-0.04	0
bin	-0.02	0
bin	0	2
bin	0.02	0
bin	0.04	0
bin	0.06	0
bin	0.08	0
bin	0.1	0
bin	0.12	0
bin	0.14	0
bin	0.16	0
bin	0.18	0
bin	0.2	0
bin	0.22	0
bin	0.24	0
bin	0.26	0
bin	0.28	0
bin	0.3	0
bin	0.32	0
bin	0.34	0
bin	0.36	0
bin	0.38	0
bin	0.4	0
bin	0.42	0
bin	0.44	0
bin	0.46	0
bin	0.48	0
bin	0.5	0
statistic dtnsim.node[3].dtn dtnBundleSentToAppHopCount:histogram
field count 2
field mean 2.5
field stddev 0.70710678118655
field min 2
field max 3
field sum 5
field sqrsum 13
attr interpolationmode none
attr recordingmode histogram
attr source dtnBundleSentToAppHopCount
attr title dtnBundleSentToAppHopCount
bin	-inf	0
bin	1	0
bin	2	1
bin	3	1
bin	4	0
scalar dtnsim.node[3].dtn dtnBundleSentToApp:count 2
attr interpolationmode none
attr recordingmode count
attr source dtnBundleSentToApp
attr title "dtnBundleSentToApp, count"
scalar dtnsim.node[3].dtn dtnBundleSentToCom:count 2
attr interpolationmode none
attr recordingmode count
attr source dtnBundleSentToCom
attr title "dtnBundleSentToCom, count"
par dtnsim.node[3].com typename "\"src.node.com.Com\""
par dtnsim.node[3].com packetLoss 0
par dtnsim.node[3].graphics typename "\"src.node.graphics.Graphics\""
par dtnsim.node[3].graphics enable true
par dtnsim.node[3].fault typename "\"src.node.fault.Fault\""
par dtnsim.node[3].fault enable false
par dtnsim.node[3].fault faultSeed 20
par dtnsim.node[3].fault meanTTF 20seconds
attr unit seconds
par dtnsim.node[3].fault meanTTR 5seconds
attr unit seconds
par dtnsim.node[3] typename "\"src.node.Node\""
par dtnsim.node[3] icon "\"satellite\""
par dtnsim.node[4].app typename "\"src.node.app.App\""
par dtnsim.node[4].app enable true
par dtnsim.node[4].app destinationEid "\"3\""
par dtnsim.node[4].app bundlesNumber "\"1\""
par dtnsim.node[4].app size "\"0\""
par dtnsim.node[4].app start "\"85\""
par dtnsim.node[4].app interval 0
par dtnsim.node[4].app ttl 9e+06
par dtnsim.node[4].app returnToSender false
par dtnsim.node[4].app critical false
par dtnsim.node[4].app custodyTransfer false
par dtnsim.node[4].app externalTrafficEvents "\"\""
scalar dtnsim.node[4].app appBundleReceivedDelay:mean 120
attr interpolationmode none
attr recordingmode mean
attr source appBundleReceivedDelay
attr title "appBundleReceivedDelay, mean"
scalar dtnsim.node[4].app appBundleReceivedDelay:max 120
attr interpolationmode none
attr recordingmode max
attr source appBundleReceivedDelay
attr title "appBundleReceivedDelay, max"
scalar dtnsim.node[4].app appBundleReceivedDelay:min 120
attr interpolationmode none
attr recordingmode min
attr source appBundleReceivedDelay
attr title "appBundleReceivedDelay, min"
statistic dtnsim.node[4].app appBundleReceivedDelay:histogram
field count 1
field mean 120
field stddev nan
field min 120
field max 120
field sum 120
field sqrsum 14400
attr interpolationmode none
attr recordingmode histogram
attr source appBundleReceivedDelay
attr title appBundleReceivedDelay
bin	-inf	0
bin	119	0
bin	120	1
bin	121	0
scalar dtnsim.node[4].app appBundleReceivedHops:mean 3
attr interpolationmode none
attr recordingmode mean
attr source appBundleReceivedHops
attr title "appBundleReceivedHops, mean"
scalar dtnsim.node[4].app appBundleReceivedHops:max 3
attr interpolationmode none
attr recordingmode max
attr source appBundleReceivedHops
attr title "appBundleReceivedHops, max"
scalar dtnsim.node[4].app appBundleReceivedHops:min 3
attr interpolationmode none
attr recordingmode min
attr source appBundleReceivedHops
attr title "appBundleReceivedHops, min"
statistic dtnsim.node[4].app appBundleReceivedHops:histogram
field count 1
field mean 3
field stddev nan
field min 3
field max 3
field sum 3
field sqrsum 9
attr interpolationmode none
attr recordingmode histogram
attr source appBundleReceivedHops
attr title appBundleReceivedHops
bin	-inf	0
bin	2	0
bin	3	1
bin	4	0
scalar dtnsim.node[4].app appBundleReceived:count 1
attr interpolationmode none
attr recordingmode count
attr source appBundleReceived
attr title "appBundleReceived, count"
scalar dtnsim.node[4].app appBundleSent:count 1
attr interpolationmode none
attr recordingmode count
attr source appBundleSent
attr title "appBundleSent, count"
par dtnsim.node[4].dtn typename "\"src.node.dtn.Dtn\""
par dtnsim.node[4].dtn routing "\"uncertainUniboCgr\""
par dtnsim.node[4].dtn routingType "\"routeListType:allPaths-initial+anchor,volumeAware:allContacts,extensionBlock:on,contactPlan:local\""
par dtnsim.node[4].dtn bundlesCopies 1
par dtnsim.node[4].dtn sContactProb 1
par dtnsim.node[4].dtn printRoutingDebug true
par dtnsim.node[4].dtn saveBundleMap true
par dtnsim.node[4].dtn sdrSize 0
par dtnsim.node[4].dtn frouting "\"\""
par dtnsim.node[4].dtn ts_duration -1
par dtnsim.node[4].dtn ts_start_times "\"\""
par dtnsim.node[4].dtn pEncouterMax 0.7
par dtnsim.node[4].dtn pEncouterFirst 0.5
par dtnsim.node[4].dtn pFirstThreshold 0.1
par dtnsim.node[4].dtn ForwThresh 0
par dtnsim.node[4].dtn alpha 0.5
par dtnsim.node[4].dtn beta 0.9
par dtnsim.node[4].dtn gamma 0.999
par dtnsim.node[4].dtn delta 0.01
par dtnsim.node[4].dtn custodyReportByteSize 20
par dtnsim.node[4].dtn custodyTimeout 100
scalar dtnsim.node[4].dtn routeCgrRouteTableEntriesExplored:max nan
attr interpolationmode none
attr recordingmode max
attr source routeCgrRouteTableEntriesExplored
attr title "routeCgrRouteTableEntriesExplored, max"
scalar dtnsim.node[4].dtn routeCgrRouteTableEntriesExplored:sum 0
attr interpolationmode none
attr recordingmode sum
attr source routeCgrRouteTableEntriesExplored
attr title "routeCgrRouteTableEntriesExplored, sum"
scalar dtnsim.node[4].dtn routeCgrRouteTableEntriesCreated:max nan
attr interpolationmode none
attr recordingmode max
attr source routeCgrRouteTableEntriesCreated
attr title "routeCgrRouteTableEntriesCreated, max"
scalar dtnsim.node[4].dtn routeCgrRouteTableEntriesCreated:sum 0
attr interpolationmode none
attr recordingmode sum
attr source routeCgrRouteTableEntriesCreated
attr title "routeCgrRouteTableEntriesCreated, sum"
scalar dtnsim.node[4].dtn routeCgrDijkstraLoops:sum 0
attr interpolationmode none
attr recordingmode sum
attr source routeCgrDijkstraLoops
attr title "routeCgrDijkstraLoops, sum"
scalar dtnsim.node[4].dtn routeCgrDijkstraCalls:sum 0
attr interpolationmode none
attr recordingmode sum
attr source routeCgrDijkstraCalls
attr title "routeCgrDijkstraCalls, sum"
scalar dtnsim.node[4].dtn sdrBytesStored:timeavg 0
attr interpolationmode none
attr recordingmode timeavg
attr source sdrBytesStored
attr title "sdrBytesStored, timeavg"
scalar dtnsim.node[4].dtn sdrBytesStored:max 0
attr interpolationmode none
attr recordingmode max
attr source sdrBytesStored
attr title "sdrBytesStored, max"
scalar dtnsim.node[4].dtn sdrBundleStored:timeavg 0.1
attr interpolationmode none
attr recordingmode timeavg
attr source sdrBundleStored
attr title "sdrBundleStored, timeavg"
scalar dtnsim.node[4].dtn sdrBundleStored:max 1
attr interpolationmode none
attr recordingmode max
attr source sdrBundleStored
attr title "sdrBundleStored, max"
scalar dtnsim.node[4].dtn dtnBundleReRouted:count 0
attr interpolationmode none
attr recordingmode count
attr source dtnBundleReRouted
attr title "dtnBundleReRouted, count"
scalar dtnsim.node[4].dtn dtnBundleReceivedFromApp:count 1
attr interpolationmode none
attr recordingmode count
attr source dtnBundleReceivedFromApp
attr title "dtnBundleReceivedFromApp, count"
scalar dtnsim.node[4].dtn dtnBundleReceivedFromCom:count 2
attr interpolationmode none
attr recordingmode count
attr source dtnBundleReceivedFromCom
attr title "dtnBundleReceivedFromCom, count"
statistic dtnsim.node[4].dtn dtnBundleSentToAppRevisitedHops:histogram
field count 1
field mean 0
field stddev nan
field min 0
field max 0
field sum 0
field sqrsum 0
attr interpolationmode none
attr recordingmode histogram
attr source dtnBundleSentToAppRevisitedHops
attr title dtnBundleSentToAppRevisitedHops
bin	-inf	0
bin	-0.5	0
bin	-0.48	0
bin	-0.46	0
bin	-0.44	0
bin	-0.42	0
bin	-0.4	0
bin	-0.38	0
bin	-0.36	0
bin	-0.34	0
bin	-0.32	0
bin	-0.3	0
bin	-0.28	0
bin	-0.26	0
bin	-0.24	0
bin	-0.22	0
bin	-0.2	0
bin	-0.18	0
bin	-0.16	0
bin	-0.14	0
bin	-0.12	0
bin	-0.1	0
bin	-0.08	0
bin	-0.06	0
bin	-0.04	0
bin	-0.02	0
bin	0	1
bin	0.02	0
bin	0.04	0
bin	0.06	0
bin	0.08	0
bin	0.1	0
bin	0.12	0
bin	0.14	0
bin	0.16	0
bin	0.18	0
bin	0.2	0
bin	0.22	0
bin	0.24	0
bin	0.26	0
bin	0.28	0
bin	0.3	0
bin	0.32	0
bin	0.34	0
bin	0.36	0
bin	0.38	0
bin	0.4	0
bin	0.42	0
bin	0.44	0
bin	0.46	0
bin	0.48	0
bin	0.5	0
statistic dtnsim.node[4].dtn dtnBundleSentToAppHopCount:histogram
field count 1
field mean 3
field stddev nan
field min 3
field max 3
field sum 3
field sqrsum 9
attr interpolationmode none
attr recordingmode histogram
attr source dtnBundleSentToAppHopCount
attr title dtnBundleSentToAppHopCount
bin	-inf	0
bin	2	0
bin	3	1
bin	4	0
scalar dtnsim.node[4].dtn dtnBundleSentToApp:count 1
attr interpolationmode none
attr recordingmode count
attr source dtnBundleSentToApp
attr title "dtnBundleSentToApp, count"
scalar dtnsim.node[4].dtn dtnBundleSentToCom:count 2
attr interpolationmode none
attr recordingmode count
attr source dtnBundleSentToCom
attr title "dtnBundleSentToCom, count"
par dtnsim.node[4].com typename "\"src.node.com.Com\""
par dtnsim.node[4].com packetLoss 0
par dtnsim.node[4].graphics typename "\"src.node.graphics.Graphics\""
par dtnsim.node[4].graphics enable true
par dtnsim.node[4].fault typename "\"src.node.fault.Fault\""
par dtnsim.node[4].fault enable false
par dtnsim.node[4].fault faultSeed 20
par dtnsim.node[4].fault meanTTF 20seconds
attr unit seconds
par dtnsim.node[4].fault meanTTR 5seconds
attr unit seconds
par dtnsim.node[4] typename "\"src.node.Node\""
par dtnsim.node[4] icon "\"satellite\""
par dtnsim.node[5].app typename "\"src.node.app.App\""
par dtnsim.node[5].app enable false
par dtnsim.node[5].app destinationEid "\"1\""
par dtnsim.node[5].app bundlesNumber "\"1\""
par dtnsim.node[5].app size "\"1024\""
par dtnsim.node[5].app start "\"0\""
par dtnsim.node[5].app interval 0
par dtnsim.node[5].app ttl 9e+06
par dtnsim.node[5].app returnToSender true
par dtnsim.node[5].app critical false
par dtnsim.node[5].app custodyTransfer false
par dtnsim.node[5].app externalTrafficEvents "\"\""
scalar dtnsim.node[5].app appBundleReceivedDelay:mean nan
attr interpolationmode none
attr recordingmode mean
attr source appBundleReceivedDelay
attr title "appBundleReceivedDelay, mean"
scalar dtnsim.node[5].app appBundleReceivedDelay:max nan
attr interpolationmode none
attr recordingmode max
attr source appBundleReceivedDelay
attr title "appBundleReceivedDelay, max"
scalar dtnsim.node[5].app appBundleReceivedDelay:min nan
attr interpolationmode none
attr recordingmode min
attr source appBundleReceivedDelay
attr title "appBundleReceivedDelay, min"
statistic dtnsim.node[5].app appBundleReceivedDelay:histogram
field count 0
field mean nan
field stddev nan
field min nan
field max nan
field sum 0
field sqrsum 0
attr interpolationmode none
attr recordingmode histogram
attr source appBundleReceivedDelay
attr title appBundleReceivedDelay
bin	-inf	0
bin	0	0
bin	1	0
scalar dtnsim.node[5].app appBundleReceivedHops:mean nan
attr interpolationmode none
attr recordingmode mean
attr source appBundleReceivedHops
attr title "appBundleReceivedHops, mean"
scalar dtnsim.node[5].app appBundleReceivedHops:max nan
attr interpolationmode none
attr recordingmode max
attr source appBundleReceivedHops
attr title "appBundleReceivedHops, max"
scalar dtnsim.node[5].app appBundleReceivedHops:min nan
attr interpolationmode none
attr recordingmode min
attr source appBundleReceivedHops
attr title "appBundleReceivedHops, min"
statistic dtnsim.node[5].app appBundleReceivedHops:histogram
field count 0
field mean nan
field stddev nan
field min nan
field max nan
field sum 0
field sqrsum 0
attr interpolationmode none
attr recordingmode histogram
attr source appBundleReceivedHops
attr title appBundleReceivedHops
bin	-inf	0
bin	0	0
bin	1	0
scalar dtnsim.node[5].app appBundleReceived:count 0
attr interpolationmode none
attr recordingmode count
attr source appBundleReceived
attr title "appBundleReceived, count"
scalar dtnsim.node[5].app appBundleSent:count 0
attr interpolationmode none
attr recordingmode count
attr source appBundleSent
attr title "appBundleSent, count"
par dtnsim.node[5].dtn typename "\"src.node.dtn.Dtn\""
par dtnsim.node[5].dtn routing "\"uncertainUniboCgr\""
par dtnsim.node[5].dtn routingType "\"routeListType:allPaths-initial+anchor,volumeAware:allContacts,extensionBlock:on,contactPlan:local\""
par dtnsim.node[5].dtn bundlesCopies 1
par dtnsim.node[5].dtn sContactProb 1
par dtnsim.node[5].dtn printRoutingDebug true
par dtnsim.node[5].dtn saveBundleMap true
par dtnsim.node[5].dtn sdrSize 0
par dtnsim.node[5].dtn frouting "\"\""
par dtnsim.node[5].dtn ts_duration -1
par dtnsim.node[5].dtn ts_start_times "\"\""
par dtnsim.node[5].dtn pEncouterMax 0.7
par dtnsim.node[5].dtn pEncouterFirst 0.5
par dtnsim.node[5].dtn pFirstThreshold 0.1
par dtnsim.node[5].dtn ForwThresh 0
par dtnsim.node[5].dtn alpha 0.5
par dtnsim.node[5].dtn beta 0.9
par dtnsim.node[5].dtn gamma 0.999
par dtnsim.node[5].dtn delta 0.01
par dtnsim.node[5].dtn custodyReportByteSize 20
par dtnsim.node[5].dtn custodyTimeout 100
scalar dtnsim.node[5].dtn routeCgrRouteTableEntriesExplored:max nan
attr interpolationmode none
attr recordingmode max
attr source routeCgrRouteTableEntriesExplored
attr title "routeCgrRouteTableEntriesExplored, max"
scalar dtnsim.node[5].dtn routeCgrRouteTableEntriesExplored:sum 0
attr interpolationmode none
attr recordingmode sum
attr source routeCgrRouteTableEntriesExplored
attr title "routeCgrRouteTableEntriesExplored, sum"
scalar dtnsim.node[5].dtn routeCgrRouteTableEntriesCreated:max nan
attr interpolationmode none
attr recordingmode max
attr source routeCgrRouteTableEntriesCreated
attr title "routeCgrRouteTableEntriesCreated, max"
scalar dtnsim.node[5].dtn routeCgrRouteTableEntriesCreated:sum 0
attr interpolationmode none
attr recordingmode sum
attr source routeCgrRouteTableEntriesCreated
attr title "routeCgrRouteTableEntriesCreated, sum"
scalar dtnsim.node[5].dtn routeCgrDijkstraLoops:sum 0
attr interpolationmode none
attr recordingmode sum
attr source routeCgrDijkstraLoops
attr title "routeCgrDijkstraLoops, sum"
scalar dtnsim.node[5].dtn routeCgrDijkstraCalls:sum 0
attr interpolationmode none
attr recordingmode sum
attr source routeCgrDijkstraCalls
attr title "routeCgrDijkstraCalls, sum"
scalar dtnsim.node[5].dtn sdrBytesStored:timeavg 0
attr interpolationmode none
attr recordingmode timeavg
attr source sdrBytesStored
attr title "sdrBytesStored, timeavg"
scalar dtnsim.node[5].dtn sdrBytesStored:max 0
attr interpolationmode none
attr recordingmode max
attr source sdrBytesStored
attr title "sdrBytesStored, max"
scalar dtnsim.node[5].dtn sdrBundleStored:timeavg 0
attr interpolationmode none
attr recordingmode timeavg
attr source sdrBundleStored
attr title "sdrBundleStored, timeavg"
scalar dtnsim.node[5].dtn sdrBundleStored:max 0
attr interpolationmode none
attr recordingmode max
attr source sdrBundleStored
attr title "sdrBundleStored, max"
scalar dtnsim.node[5].dtn dtnBundleReRouted:count 0
attr interpolationmode none
attr recordingmode count
attr source dtnBundleReRouted
attr title "dtnBundleReRouted, count"
scalar dtnsim.node[5].dtn dtnBundleReceivedFromApp:count 0
attr interpolationmode none
attr recordingmode count
attr source dtnBundleReceivedFromApp
attr title "dtnBundleReceivedFromApp, count"
scalar dtnsim.node[5].dtn dtnBundleReceivedFromCom:count 0
attr interpolationmode none
attr recordingmode count
attr source dtnBundleReceivedFromCom
attr title "dtnBundleReceivedFromCom, count"
statistic dtnsim.node[5].dtn dtnBundleSentToAppRevisitedHops:histogram
field count 0
field mean nan
field stddev nan
field min nan
field max nan
field sum 0
field sqrsum 0
attr interpolationmode none
attr recordingmode histogram
attr source dtnBundleSentToAppRevisitedHops
attr title dtnBundleSentToAppRevisitedHops
bin	-inf	0
bin	0	0
bin	1	0
statistic dtnsim.node[5].dtn dtnBundleSentToAppHopCount:histogram
field count 0
field mean nan
field stddev nan
field min nan
field max nan
field sum 0
field sqrsum 0
attr interpolationmode none
attr recordingmode histogram
attr source dtnBundleSentToAppHopCount
attr title dtnBundleSentToAppHopCount
bin	-inf	0
bin	0	0
bin	1	0
scalar dtnsim.node[5].dtn dtnBundleSentToApp:count 0
attr interpolationmode none
attr recordingmode count
attr source dtnBundleSentToApp
attr title "dtnBundleSentToApp, count"
scalar dtnsim.node[5].dtn dtnBundleSentToCom:count 0
attr interpolationmode none
attr recordingmode count
attr source dtnBundleSentToCom
attr title "dtnBundleSentToCom, count"
par dtnsim.node[5].com typename "\"src.node.com.Com\""
par dtnsim.node[5].com packetLoss 0
par dtnsim.node[5].graphics typename "\"src.node.graphics.Graphics\""
par dtnsim.node[5].graphics enable true
par dtnsim.node[5].fault typename "\"src.node.fault.Fault\""
par dtnsim.node[5].fault enable false
par dtnsim.node[5].fault faultSeed 20
par dtnsim.node[5].fault meanTTF 20seconds
attr unit seconds
par dtnsim.node[5].fault meanTTR 5seconds
attr unit seconds
par dtnsim.node[5] typename "\"src.node.Node\""
par dtnsim.node[5] icon "\"satellite\""
par dtnsim.node[6].app typename "\"src.node.app.App\""
par dtnsim.node[6].app enable false
par dtnsim.node[6].app destinationEid "\"1\""
par dtnsim.node[6].app bundlesNumber "\"1\""
par dtnsim.node[6].app size "\"1024\""
par dtnsim.node[6].app start "\"0\""
par dtnsim.node[6].app interval 0
par dtnsim.node[6].app ttl 9e+06
par dtnsim.node[6].app returnToSender true
par dtnsim.node[6].app critical false
par dtnsim.node[6].app custodyTransfer false
par dtnsim.node[6].app externalTrafficEvents "\"\""
scalar dtnsim.node[6].app appBundleReceivedDelay:mean nan
attr interpolationmode none
attr recordingmode mean
attr source appBundleReceivedDelay
attr title "appBundleReceivedDelay, mean"
scalar dtnsim.node[6].app appBundleReceivedDelay:max nan
attr interpolationmode none
attr recordingmode max
attr source appBundleReceivedDelay
attr title "appBundleReceivedDelay, max"
scalar dtnsim.node[6].app appBundleReceivedDelay:min nan
attr interpolationmode none
attr recordingmode min
attr source appBundleReceivedDelay
attr title "appBundleReceivedDelay, min"
statistic dtnsim.node[6].app appBundleReceivedDelay:histogram
field count 0
field mean nan
field stddev nan
field min nan
field max nan
field sum 0
field sqrsum 0
attr interpolationmode none
attr recordingmode histogram
attr source appBundleReceivedDelay
attr title appBundleReceivedDelay
bin	-inf	0
bin	0	0
bin	1	0
scalar dtnsim.node[6].app appBundleReceivedHops:mean nan
attr interpolationmode none
attr recordingmode mean
attr source appBundleReceivedHops
attr title "appBundleReceivedHops, mean"
scalar dtnsim.node[6].app appBundleReceivedHops:max nan
attr interpolationmode none
attr recordingmode max
attr source appBundleReceivedHops
attr title "appBundleReceivedHops, max"
scalar dtnsim.node[6].app appBundleReceivedHops:min nan
attr interpolationmode none
attr recordingmode min
attr source appBundleReceivedHops
attr title "appBundleReceivedHops, min"
statistic dtnsim.node[6].app appBundleReceivedHops:histogram
field count 0
field mean nan
field stddev nan
field min nan
field max nan
field sum 0
field sqrsum 0
attr interpolationmode none
attr recordingmode histogram
attr source appBundleReceivedHops
attr title appBundleReceivedHops
bin	-inf	0
bin	0	0
bin	1	0
scalar dtnsim.node[6].app appBundleReceived:count 0
attr interpolationmode none
attr recordingmode count
attr source appBundleReceived
attr title "appBundleReceived, count"
scalar dtnsim.node[6].app appBundleSent:count 0
attr interpolationmode none
attr recordingmode count
attr source appBundleSent
attr title "appBundleSent, count"
par dtnsim.node[6].dtn typename "\"src.node.dtn.Dtn\""
par dtnsim.node[6].dtn routing "\"uncertainUniboCgr\""
par dtnsim.node[6].dtn routingType "\"routeListType:allPaths-initial+anchor,volumeAware:allContacts,extensionBlock:on,contactPlan:local\""
par dtnsim.node[6].dtn bundlesCopies 1
par dtnsim.node[6].dtn sContactProb 1
par dtnsim.node[6].dtn printRoutingDebug true
par dtnsim.node[6].dtn saveBundleMap true
par dtnsim.node[6].dtn sdrSize 0
par dtnsim.node[6].dtn frouting "\"\""
par dtnsim.node[6].dtn ts_duration -1
par dtnsim.node[6].dtn ts_start_times "\"\""
par dtnsim.node[6].dtn pEncouterMax 0.7
par dtnsim.node[6].dtn pEncouterFirst 0.5
par dtnsim.node[6].dtn pFirstThreshold 0.1
par dtnsim.node[6].dtn ForwThresh 0
par dtnsim.node[6].dtn alpha 0.5
par dtnsim.node[6].dtn beta 0.9
par dtnsim.node[6].dtn gamma 0.999
par dtnsim.node[6].dtn delta 0.01
par dtnsim.node[6].dtn custodyReportByteSize 20
par dtnsim.node[6].dtn custodyTimeout 100
scalar dtnsim.node[6].dtn routeCgrRouteTableEntriesExplored:max nan
attr interpolationmode none
attr recordingmode max
attr source routeCgrRouteTableEntriesExplored
attr title "routeCgrRouteTableEntriesExplored, max"
scalar dtnsim.node[6].dtn routeCgrRouteTableEntriesExplored:sum 0
attr interpolationmode none
attr recordingmode sum
attr source routeCgrRouteTableEntriesExplored
attr title "routeCgrRouteTableEntriesExplored, sum"
scalar dtnsim.node[6].dtn routeCgrRouteTableEntriesCreated:max nan
attr interpolationmode none
attr recordingmode max
attr source routeCgrRouteTableEntriesCreated
attr title "routeCgrRouteTableEntriesCreated, max"
scalar dtnsim.node[6].dtn routeCgrRouteTableEntriesCreated:sum 0
attr interpolationmode none
attr recordingmode sum
attr source routeCgrRouteTableEntriesCreated
attr title "routeCgrRouteTableEntriesCreated, sum"
scalar dtnsim.node[6].dtn routeCgrDijkstraLoops:sum 0
attr interpolationmode none
attr recordingmode sum
attr source routeCgrDijkstraLoops
attr title "routeCgrDijkstraLoops, sum"
scalar dtnsim.node[6].dtn routeCgrDijkstraCalls:sum 0
attr interpolationmode none
attr recordingmode sum
attr source routeCgrDijkstraCalls
attr title "routeCgrDijkstraCalls, sum"
scalar dtnsim.node[6].dtn sdrBytesStored:timeavg 0
attr interpolationmode none
attr recordingmode timeavg
attr source sdrBytesStored
attr title "sdrBytesStored, timeavg"
scalar dtnsim.node[6].dtn sdrBytesStored:max 0
attr interpolationmode none
attr recordingmode max
attr source sdrBytesStored
attr title "sdrBytesStored, max"
scalar dtnsim.node[6].dtn sdrBundleStored:timeavg 0
attr interpolationmode none
attr recordingmode timeavg
attr source sdrBundleStored
attr title "sdrBundleStored, timeavg"
scalar dtnsim.node[6].dtn sdrBundleStored:max 0
attr interpolationmode none
attr recordingmode max
attr source sdrBundleStored
attr title "sdrBundleStored, max"
scalar dtnsim.node[6].dtn dtnBundleReRouted:count 0
attr interpolationmode none
attr recordingmode count
attr source dtnBundleReRouted
attr title "dtnBundleReRouted, count"
scalar dtnsim.node[6].dtn dtnBundleReceivedFromApp:count 0
attr interpolationmode none
attr recordingmode count
attr source dtnBundleReceivedFromApp
attr title "dtnBundleReceivedFromApp, count"
scalar dtnsim.node[6].dtn dtnBundleReceivedFromCom:count 0
attr interpolationmode none
attr recordingmode count
attr source dtnBundleReceivedFromCom
attr title "dtnBundleReceivedFromCom, count"
statistic dtnsim.node[6].dtn dtnBundleSentToAppRevisitedHops:histogram
field count 0
field mean nan
field stddev nan
field min nan
field max nan
field sum 0
field sqrsum 0
attr interpolationmode none
attr recordingmode histogram
attr source dtnBundleSentToAppRevisitedHops
attr title dtnBundleSentToAppRevisitedHops
bin	-inf	0
bin	0	0
bin	1	0
statistic dtnsim.node[6].dtn dtnBundleSentToAppHopCount:histogram
field count 0
field mean nan
field stddev nan
field min nan
field max nan
field sum 0
field sqrsum 0
attr interpolationmode none
attr recordingmode histogram
attr source dtnBundleSentToAppHopCount
attr title dtnBundleSentToAppHopCount
bin	-inf	0
bin	0	0
bin	1	0
scalar dtnsim.node[6].dtn dtnBundleSentToApp:count 0
attr interpolationmode none
attr recordingmode count
attr source dtnBundleSentToApp
attr title "dtnBundleSentToApp, count"
scalar dtnsim.node[6].dtn dtnBundleSentToCom:count 0
attr interpolationmode none
attr recordingmode count
attr source dtnBundleSentToCom
attr title "dtnBundleSentToCom, count"
par dtnsim.node[6].com typename "\"src.node.com.Com\""
par dtnsim.node[6].com packetLoss 0
par dtnsim.node[6].graphics typename "\"src.node.graphics.Graphics\""
par dtnsim.node[6].graphics enable true
par dtnsim.node[6].fault typename "\"src.node.fault.Fault\""
par dtnsim.node[6].fault enable false
par dtnsim.node[6].fault faultSeed 20
par dtnsim.node[6].fault meanTTF 20seconds
attr unit seconds
par dtnsim.node[6].fault meanTTR 5seconds
attr unit seconds
par dtnsim.node[6] typename "\"src.node.Node\""
par dtnsim.node[6] icon "\"satellite\""
par dtnsim.node[7].app typename "\"src.node.app.App\""
par dtnsim.node[7].app enable true
par dtnsim.node[7].app destinationEid "\"5\""
par dtnsim.node[7].app bundlesNumber "\"1\""
par dtnsim.node[7].app size "\"0\""
par dtnsim.node[7].app start "\"0\""
par dtnsim.node[7].app interval 0
par dtnsim.node[7].app ttl 9e+06
par dtnsim.node[7].app returnToSender false
par dtnsim.node[7].app critical false
par dtnsim.node[7].app custodyTransfer false
par dtnsim.node[7].app externalTrafficEvents "\"\""
scalar dtnsim.node[7].app appBundleReceivedDelay:mean nan
attr interpolationmode none
attr recordingmode mean
attr source appBundleReceivedDelay
attr title "appBundleReceivedDelay, mean"
scalar dtnsim.node[7].app appBundleReceivedDelay:max nan
attr interpolationmode none
attr recordingmode max
attr source appBundleReceivedDelay
attr title "appBundleReceivedDelay, max"
scalar dtnsim.node[7].app appBundleReceivedDelay:min nan
attr interpolationmode none
attr recordingmode min
attr source appBundleReceivedDelay
attr title "appBundleReceivedDelay, min"
statistic dtnsim.node[7].app appBundleReceivedDelay:histogram
field count 0
field mean nan
field stddev nan
field min nan
field max nan
field sum 0
field sqrsum 0
attr interpolationmode none
attr recordingmode histogram
attr source appBundleReceivedDelay
attr title appBundleReceivedDelay
bin	-inf	0
bin	0	0
bin	1	0
scalar dtnsim.node[7].app appBundleReceivedHops:mean nan
attr interpolationmode none
attr recordingmode mean
attr source appBundleReceivedHops
attr title "appBundleReceivedHops, mean"
scalar dtnsim.node[7].app appBundleReceivedHops:max nan
attr interpolationmode none
attr recordingmode max
attr source appBundleReceivedHops
attr title "appBundleReceivedHops, max"
scalar dtnsim.node[7].app appBundleReceivedHops:min nan
attr interpolationmode none
attr recordingmode min
attr source appBundleReceivedHops
attr title "appBundleReceivedHops, min"
statistic dtnsim.node[7].app appBundleReceivedHops:histogram
field count 0
field mean nan
field stddev nan
field min nan
field max nan
field sum 0
field sqrsum 0
attr interpolationmode none
attr recordingmode histogram
attr source appBundleReceivedHops
attr title appBundleReceivedHops
bin	-inf	0
bin	0	0
bin	1	0
scalar dtnsim.node[7].app appBundleReceived:count 0
attr interpolationmode none
attr recordingmode count
attr source appBundleReceived
attr title "appBundleReceived, count"
scalar dtnsim.node[7].app appBundleSent:count 1
attr interpolationmode none
attr recordingmode count
attr source appBundleSent
attr title "appBundleSent, count"
par dtnsim.node[7].dtn typename "\"src.node.dtn.Dtn\""
par dtnsim.node[7].dtn routing "\"uncertainUniboCgr\""
par dtnsim.node[7].dtn routingType "\"routeListType:allPaths-initial+anchor,volumeAware:allContacts,extensionBlock:on,contactPlan:local\""
par dtnsim.node[7].dtn bundlesCopies 1
par dtnsim.node[7].dtn sContactProb 1
par dtnsim.node[7].dtn printRoutingDebug true
par dtnsim.node[7].dtn saveBundleMap true
par dtnsim.node[7].dtn sdrSize 0
par dtnsim.node[7].dtn frouting "\"\""
par dtnsim.node[7].dtn ts_duration -1
par dtnsim.node[7].dtn ts_start_times "\"\""
par dtnsim.node[7].dtn pEncouterMax 0.7
par dtnsim.node[7].dtn pEncouterFirst 0.5
par dtnsim.node[7].dtn pFirstThreshold 0.1
par dtnsim.node[7].dtn ForwThresh 0
par dtnsim.node[7].dtn alpha 0.5
par dtnsim.node[7].dtn beta 0.9
par dtnsim.node[7].dtn gamma 0.999
par dtnsim.node[7].dtn delta 0.01
par dtnsim.node[7].dtn custodyReportByteSize 20
par dtnsim.node[7].dtn custodyTimeout 100
scalar dtnsim.node[7].dtn routeCgrRouteTableEntriesExplored:max nan
attr interpolationmode none
attr recordingmode max
attr source routeCgrRouteTableEntriesExplored
attr title "routeCgrRouteTableEntriesExplored, max"
scalar dtnsim.node[7].dtn routeCgrRouteTableEntriesExplored:sum 0
attr interpolationmode none
attr recordingmode sum
attr source routeCgrRouteTableEntriesExplored
attr title "routeCgrRouteTableEntriesExplored, sum"
scalar dtnsim.node[7].dtn routeCgrRouteTableEntriesCreated:max nan
attr interpolationmode none
attr recordingmode max
attr source routeCgrRouteTableEntriesCreated
attr title "routeCgrRouteTableEntriesCreated, max"
scalar dtnsim.node[7].dtn routeCgrRouteTableEntriesCreated:sum 0
attr interpolationmode none
attr recordingmode sum
attr source routeCgrRouteTableEntriesCreated
attr title "routeCgrRouteTableEntriesCreated, sum"
scalar dtnsim.node[7].dtn routeCgrDijkstraLoops:sum 0
attr interpolationmode none
attr recordingmode sum
attr source routeCgrDijkstraLoops
attr title "routeCgrDijkstraLoops, sum"
scalar dtnsim.node[7].dtn routeCgrDijkstraCalls:sum 0
attr interpolationmode none
attr recordingmode sum
attr source routeCgrDijkstraCalls
attr title "routeCgrDijkstraCalls, sum"
scalar dtnsim.node[7].dtn sdrBytesStored:timeavg 0
attr interpolationmode none
attr recordingmode timeavg
attr source sdrBytesStored
attr title "sdrBytesStored, timeavg"
scalar dtnsim.node[7].dtn sdrBytesStored:max 0
attr interpolationmode none
attr recordingmode max
attr source sdrBytesStored
attr title "sdrBytesStored, max"
scalar dtnsim.node[7].dtn sdrBundleStored:timeavg 0
attr interpolationmode none
attr recordingmode timeavg
attr source sdrBundleStored
attr title "sdrBundleStored, timeavg"
scalar dtnsim.node[7].dtn sdrBundleStored:max 1
attr interpolationmode none
attr recordingmode max
attr source sdrBundleStored
attr title "sdrBundleStored, max"
scalar dtnsim.node[7].dtn dtnBundleReRouted:count 0
attr interpolationmode none
attr recordingmode count
attr source dtnBundleReRouted
attr title "dtnBundleReRouted, count"
scalar dtnsim.node[7].dtn dtnBundleReceivedFromApp:count 1
attr interpolationmode none
attr recordingmode count
attr source dtnBundleReceivedFromApp
attr title "dtnBundleReceivedFromApp, count"
scalar dtnsim.node[7].dtn dtnBundleReceivedFromCom:count 0
attr interpolationmode none
attr recordingmode count
attr source dtnBundleReceivedFromCom
attr title "dtnBundleReceivedFromCom, count"
statistic dtnsim.node[7].dtn dtnBundleSentToAppRevisitedHops:histogram
field count 0
field mean nan
field stddev nan
field min nan
field max nan
field sum 0
field sqrsum 0
attr interpolationmode none
attr recordingmode histogram
attr source dtnBundleSentToAppRevisitedHops
attr title dtnBundleSentToAppRevisitedHops
bin	-inf	0
bin	0	0
bin	1	0
statistic dtnsim.node[7].dtn dtnBundleSentToAppHopCount:histogram
field count 0
field mean nan
field stddev nan
field min nan
field max nan
field sum 0
field sqrsum 0
attr interpolationmode none
attr recordingmode histogram
attr source dtnBundleSentToAppHopCount
attr title dtnBundleSentToAppHopCount
bin	-inf	0
bin	0	0
bin	1	0
scalar dtnsim.node[7].dtn dtnBundleSentToApp:count 0
attr interpolationmode none
attr recordingmode count
attr source dtnBundleSentToApp
attr title "dtnBundleSentToApp, count"
scalar dtnsim.node[7].dtn dtnBundleSentToCom:count 1
attr interpolationmode none
attr recordingmode count
attr source dtnBundleSentToCom
attr title "dtnBundleSentToCom, count"
par dtnsim.node[7].com typename "\"src.node.com.Com\""
par dtnsim.node[7].com packetLoss 0
par dtnsim.node[7].graphics typename "\"src.node.graphics.Graphics\""
par dtnsim.node[7].graphics enable true
par dtnsim.node[7].fault typename "\"src.node.fault.Fault\""
par dtnsim.node[7].fault enable false
par dtnsim.node[7].fault faultSeed 20
par dtnsim.node[7].fault meanTTF 20seconds
attr unit seconds
par dtnsim.node[7].fault meanTTR 5seconds
attr unit seconds
par dtnsim.node[7] typename "\"src.node.Node\""
par dtnsim.node[7] icon "\"satellite\""
par dtnsim.node[8].app typename "\"src.node.app.App\""
par dtnsim.node[8].app enable true
par dtnsim.node[8].app destinationEid "\"3, 4\""
par dtnsim.node[8].app bundlesNumber "\"1, 1\""
par dtnsim.node[8].app size "\"0, 0\""
par dtnsim.node[8].app start "\"30, 20\""
par dtnsim.node[8].app interval 0
par dtnsim.node[8].app ttl 9e+06
par dtnsim.node[8].app returnToSender false
par dtnsim.node[8].app critical false
par dtnsim.node[8].app custodyTransfer false
par dtnsim.node[8].app externalTrafficEvents "\"\""
scalar dtnsim.node[8].app appBundleReceivedDelay:mean nan
attr interpolationmode none
attr recordingmode mean
attr source appBundleReceivedDelay
attr title "appBundleReceivedDelay, mean"
scalar dtnsim.node[8].app appBundleReceivedDelay:max nan
attr interpolationmode none
attr recordingmode max
attr source appBundleReceivedDelay
attr title "appBundleReceivedDelay, max"
scalar dtnsim.node[8].app appBundleReceivedDelay:min nan
attr interpolationmode none
attr recordingmode min
attr source appBundleReceivedDelay
attr title "appBundleReceivedDelay, min"
statistic dtnsim.node[8].app appBundleReceivedDelay:histogram
field count 0
field mean nan
field stddev nan
field min nan
field max nan
field sum 0
field sqrsum 0
attr interpolationmode none
attr recordingmode histogram
attr source appBundleReceivedDelay
attr title appBundleReceivedDelay
bin	-inf	0
bin	0	0
bin	1	0
scalar dtnsim.node[8].app appBundleReceivedHops:mean nan
attr interpolationmode none
attr recordingmode mean
attr source appBundleReceivedHops
attr title "appBundleReceivedHops, mean"
scalar dtnsim.node[8].app appBundleReceivedHops:max nan
attr interpolationmode none
attr recordingmode max
attr source appBundleReceivedHops
attr title "appBundleReceivedHops, max"
scalar dtnsim.node[8].app appBundleReceivedHops:min nan
attr interpolationmode none
attr recordingmode min
attr source appBundleReceivedHops
attr title "appBundleReceivedHops, min"
statistic dtnsim.node[8].app appBundleReceivedHops:histogram
field count 0
field mean nan
field stddev nan
field min nan
field max nan
field sum 0
field sqrsum 0
attr interpolationmode none
attr recordingmode histogram
attr source appBundleReceivedHops
attr title appBundleReceivedHops
bin	-inf	0
bin	0	0
bin	1	0
scalar dtnsim.node[8].app appBundleReceived:count 0
attr interpolationmode none
attr recordingmode count
attr source appBundleReceived
attr title "appBundleReceived, count"
scalar dtnsim.node[8].app appBundleSent:count 2
attr interpolationmode none
attr recordingmode count
attr source appBundleSent
attr title "appBundleSent, count"
par dtnsim.node[8].dtn typename "\"src.node.dtn.Dtn\""
par dtnsim.node[8].dtn routing "\"uncertainUniboCgr\""
par dtnsim.node[8].dtn routingType "\"routeListType:allPaths-initial+anchor,volumeAware:allContacts,extensionBlock:on,contactPlan:local\""
par dtnsim.node[8].dtn bundlesCopies 1
par dtnsim.node[8].dtn sContactProb 1
par dtnsim.node[8].dtn printRoutingDebug true
par dtnsim.node[8].dtn saveBundleMap true
par dtnsim.node[8].dtn sdrSize 0
par dtnsim.node[8].dtn frouting "\"\""
par dtnsim.node[8].dtn ts_duration -1
par dtnsim.node[8].dtn ts_start_times "\"\""
par dtnsim.node[8].dtn pEncouterMax 0.7
par dtnsim.node[8].dtn pEncouterFirst 0.5
par dtnsim.node[8].dtn pFirstThreshold 0.1
par dtnsim.node[8].dtn ForwThresh 0
par dtnsim.node[8].dtn alpha 0.5
par dtnsim.node[8].dtn beta 0.9
par dtnsim.node[8].dtn gamma 0.999
par dtnsim.node[8].dtn delta 0.01
par dtnsim.node[8].dtn custodyReportByteSize 20
par dtnsim.node[8].dtn custodyTimeout 100
scalar dtnsim.node[8].dtn routeCgrRouteTableEntriesExplored:max nan
attr interpolationmode none
attr recordingmode max
attr source routeCgrRouteTableEntriesExplored
attr title "routeCgrRouteTableEntriesExplored, max"
scalar dtnsim.node[8].dtn routeCgrRouteTableEntriesExplored:sum 0
attr interpolationmode none
attr recordingmode sum
attr source routeCgrRouteTableEntriesExplored
attr title "routeCgrRouteTableEntriesExplored, sum"
scalar dtnsim.node[8].dtn routeCgrRouteTableEntriesCreated:max nan
attr interpolationmode none
attr recordingmode max
attr source routeCgrRouteTableEntriesCreated
attr title "routeCgrRouteTableEntriesCreated, max"
scalar dtnsim.node[8].dtn routeCgrRouteTableEntriesCreated:sum 0
attr interpolationmode none
attr recordingmode sum
attr source routeCgrRouteTableEntriesCreated
attr title "routeCgrRouteTableEntriesCreated, sum"
scalar dtnsim.node[8].dtn routeCgrDijkstraLoops:sum 0
attr interpolationmode none
attr recordingmode sum
attr source routeCgrDijkstraLoops
attr title "routeCgrDijkstraLoops, sum"
scalar dtnsim.node[8].dtn routeCgrDijkstraCalls:sum 0
attr interpolationmode none
attr recordingmode sum
attr source routeCgrDijkstraCalls
attr title "routeCgrDijkstraCalls, sum"
scalar dtnsim.node[8].dtn sdrBytesStored:timeavg 0
attr interpolationmode none
attr recordingmode timeavg
attr source sdrBytesStored
attr title "sdrBytesStored, timeavg"
scalar dtnsim.node[8].dtn sdrBytesStored:max 0
attr interpolationmode none
attr recordingmode max
attr source sdrBytesStored
attr title "sdrBytesStored, max"
scalar dtnsim.node[8].dtn sdrBundleStored:timeavg 0.75
attr interpolationmode none
attr recordingmode timeavg
attr source sdrBundleStored
attr title "sdrBundleStored, timeavg"
scalar dtnsim.node[8].dtn sdrBundleStored:max 2
attr interpolationmode none
attr recordingmode max
attr source sdrBundleStored
attr title "sdrBundleStored, max"
scalar dtnsim.node[8].dtn dtnBundleReRouted:count 0
attr interpolationmode none
attr recordingmode count
attr source dtnBundleReRouted
attr title "dtnBundleReRouted, count"
scalar dtnsim.node[8].dtn dtnBundleReceivedFromApp:count 2
attr interpolationmode none
attr recordingmode count
attr source dtnBundleReceivedFromApp
attr title "dtnBundleReceivedFromApp, count"
scalar dtnsim.node[8].dtn dtnBundleReceivedFromCom:count 0
attr interpolationmode none
attr recordingmode count
attr source dtnBundleReceivedFromCom
attr title "dtnBundleReceivedFromCom, count"
statistic dtnsim.node[8].dtn dtnBundleSentToAppRevisitedHops:histogram
field count 0
field mean nan
field stddev nan
field min nan
field max nan
field sum 0
field sqrsum 0
attr interpolationmode none
attr recordingmode histogram
attr source dtnBundleSentToAppRevisitedHops
attr title dtnBundleSentToAppRevisitedHops
bin	-inf	0
bin	0	0
bin	1	0
statistic dtnsim.node[8].dtn dtnBundleSentToAppHopCount:histogram
field count 0
field mean nan
field stddev nan
field min nan
field max nan
field sum 0
field sqrsum 0
attr interpolationmode none
attr recordingmode histogram
attr source dtnBundleSentToAppHopCount
attr title dtnBundleSentToAppHopCount
bin	-inf	0
bin	0	0
bin	1	0
scalar dtnsim.node[8].dtn dtnBundleSentToApp:count 0
attr interpolationmode none
attr recordingmode count
attr source dtnBundleSentToApp
attr title "dtnBundleSentToApp, count"
scalar dtnsim.node[8].dtn dtnBundleSentToCom:count 2
attr interpolationmode none
attr recordingmode count
attr source dtnBundleSentToCom
attr title "dtnBundleSentToCom, count"
par dtnsim.node[8].com typename "\"src.node.com.Com\""
par dtnsim.node[8].com packetLoss 0
par dtnsim.node[8].graphics typename "\"src.node.graphics.Graphics\""
par dtnsim.node[8].graphics enable true
par dtnsim.node[8].fault typename "\"src.node.fault.Fault\""
par dtnsim.node[8].fault enable false
par dtnsim.node[8].fault faultSeed 20
par dtnsim.node[8].fault meanTTF 20seconds
attr unit seconds
par dtnsim.node[8].fault meanTTR 5seconds
attr unit seconds
par dtnsim.node[8] typename "\"src.node.Node\""
par dtnsim.node[8] icon "\"satellite\""
par dtnsim.node[9].app typename "\"src.node.app.App\""
par dtnsim.node[9].app enable false
par dtnsim.node[9].app destinationEid "\"1\""
par dtnsim.node[9].app bundlesNumber "\"1\""
par dtnsim.node[9].app size "\"1024\""
par dtnsim.node[9].app start "\"0\""
par dtnsim.node[9].app interval 0
par dtnsim.node[9].app ttl 9e+06
par dtnsim.node[9].app returnToSender true
par dtnsim.node[9].app critical false
par dtnsim.node[9].app custodyTransfer false
par dtnsim.node[9].app externalTrafficEvents "\"\""
scalar dtnsim.node[9].app appBundleReceivedDelay:mean nan
attr interpolationmode none
attr recordingmode mean
attr source appBundleReceivedDelay
attr title "appBundleReceivedDelay, mean"
scalar dtnsim.node[9].app appBundleReceivedDelay:max nan
attr interpolationmode none
attr recordingmode max
attr source appBundleReceivedDelay
attr title "appBundleReceivedDelay, max"
scalar dtnsim.node[9].app appBundleReceivedDelay:min nan
attr interpolationmode none
attr recordingmode min
attr source appBundleReceivedDelay
attr title "appBundleReceivedDelay, min"
statistic dtnsim.node[9].app appBundleReceivedDelay:histogram
field count 0
field mean nan
field stddev nan
field min nan
field max nan
field sum 0
field sqrsum 0
attr interpolationmode none
attr recordingmode histogram
attr source appBundleReceivedDelay
attr title appBundleReceivedDelay
bin	-inf	0
bin	0	0
bin	1	0
scalar dtnsim.node[9].app appBundleReceivedHops:mean nan
attr interpolationmode none
attr recordingmode mean
attr source appBundleReceivedHops
attr title "appBundleReceivedHops, mean"
scalar dtnsim.node[9].app appBundleReceivedHops:max nan
attr interpolationmode none
attr recordingmode max
attr source appBundleReceivedHops
attr title "appBundleReceivedHops, max"
scalar dtnsim.node[9].app appBundleReceivedHops:min nan
attr interpolationmode none
attr recordingmode min
attr source appBundleReceivedHops
attr title "appBundleReceivedHops, min"
statistic dtnsim.node[9].app appBundleReceivedHops:histogram
field count 0
field mean nan
field stddev nan
field min nan
field max nan
field sum 0
field sqrsum 0
attr interpolationmode none
attr recordingmode histogram
attr source appBundleReceivedHops
attr title appBundleReceivedHops
bin	-inf	0
bin	0	0
bin	1	0
scalar dtnsim.node[9].app appBundleReceived:count 0
attr interpolationmode none
attr recordingmode count
attr source appBundleReceived
attr title "appBundleReceived, count"
scalar dtnsim.node[9].app appBundleSent:count 0
attr interpolationmode none
attr recordingmode count
attr source appBundleSent
attr title "appBundleSent, count"
par dtnsim.node[9].dtn typename "\"src.node.dtn.Dtn\""
par dtnsim.node[9].dtn routing "\"uncertainUniboCgr\""
par dtnsim.node[9].dtn routingType "\"routeListType:allPaths-initial+anchor,volumeAware:allContacts,extensionBlock:on,contactPlan:local\""
par dtnsim.node[9].dtn bundlesCopies 1
par dtnsim.node[9].dtn sContactProb 1
par dtnsim.node[9].dtn printRoutingDebug true
par dtnsim.node[9].dtn saveBundleMap true
par dtnsim.node[9].dtn sdrSize 0
par dtnsim.node[9].dtn frouting "\"\""
par dtnsim.node[9].dtn ts_duration -1
par dtnsim.node[9].dtn ts_start_times "\"\""
par dtnsim.node[9].dtn pEncouterMax 0.7
par dtnsim.node[9].dtn pEncouterFirst 0.5
par dtnsim.node[9].dtn pFirstThreshold 0.1
par dtnsim.node[9].dtn ForwThresh 0
par dtnsim.node[9].dtn alpha 0.5
par dtnsim.node[9].dtn beta 0.9
par dtnsim.node[9].dtn gamma 0.999
par dtnsim.node[9].dtn delta 0.01
par dtnsim.node[9].dtn custodyReportByteSize 20
par dtnsim.node[9].dtn custodyTimeout 100
scalar dtnsim.node[9].dtn routeCgrRouteTableEntriesExplored:max nan
attr interpolationmode none
attr recordingmode max
attr source routeCgrRouteTableEntriesExplored
attr title "routeCgrRouteTableEntriesExplored, max"
scalar dtnsim.node[9].dtn routeCgrRouteTableEntriesExplored:sum 0
attr interpolationmode none
attr recordingmode sum
attr source routeCgrRouteTableEntriesExplored
attr title "routeCgrRouteTableEntriesExplored, sum"
scalar dtnsim.node[9].dtn routeCgrRouteTableEntriesCreated:max nan
attr interpolationmode none
attr recordingmode max
attr source routeCgrRouteTableEntriesCreated
attr title "routeCgrRouteTableEntriesCreated, max"
scalar dtnsim.node[9].dtn routeCgrRouteTableEntriesCreated:sum 0
attr interpolationmode none
attr recordingmode sum
attr source routeCgrRouteTableEntriesCreated
attr title "routeCgrRouteTableEntriesCreated, sum"
scalar dtnsim.node[9].dtn routeCgrDijkstraLoops:sum 0
attr interpolationmode none
attr recordingmode sum
attr source routeCgrDijkstraLoops
attr title "routeCgrDijkstraLoops, sum"
scalar dtnsim.node[9].dtn routeCgrDijkstraCalls:sum 0
attr interpolationmode none
attr recordingmode sum
attr source routeCgrDijkstraCalls
attr title "routeCgrDijkstraCalls, sum"
scalar dtnsim.node[9].dtn sdrBytesStored:timeavg 0
attr interpolationmode none
attr recordingmode timeavg
attr source sdrBytesStored
attr title "sdrBytesStored, timeavg"
scalar dtnsim.node[9].dtn sdrBytesStored:max 0
attr interpolationmode none
attr recordingmode max
attr source sdrBytesStored
attr title "sdrBytesStored, max"
scalar dtnsim.node[9].dtn sdrBundleStored:timeavg 0
attr interpolationmode none
attr recordingmode timeavg
attr source sdrBundleStored
attr title "sdrBundleStored, timeavg"
scalar dtnsim.node[9].dtn sdrBundleStored:max 0
attr interpolationmode none
attr recordingmode max
attr source sdrBundleStored
attr title "sdrBundleStored, max"
scalar dtnsim.node[9].dtn dtnBundleReRouted:count 0
attr interpolationmode none
attr recordingmode count
attr source dtnBundleReRouted
attr title "dtnBundleReRouted, count"
scalar dtnsim.node[9].dtn dtnBundleReceivedFromApp:count 0
attr interpolationmode none
attr recordingmode count
attr source dtnBundleReceivedFromApp
attr title "dtnBundleReceivedFromApp, count"
scalar dtnsim.node[9].dtn dtnBundleReceivedFromCom:count 0
attr interpolationmode none
attr recordingmode count
attr source dtnBundleReceivedFromCom
attr title "dtnBundleReceivedFromCom, count"
statistic dtnsim.node[9].dtn dtnBundleSentToAppRevisitedHops:histogram
field count 0
field mean nan
field stddev nan
field min nan
field max nan
field sum 0
field sqrsum 0
attr interpolationmode none
attr recordingmode histogram
attr source dtnBundleSentToAppRevisitedHops
attr title dtnBundleSentToAppRevisitedHops
bin	-inf	0
bin	0	0
bin	1	0
statistic dtnsim.node[9].dtn dtnBundleSentToAppHopCount:histogram
field count 0
field mean nan
field stddev nan
[...]
attr interpolationmode none
attr recordingmode sum
attr source routeCgrRouteTableEntriesCreated
attr title "routeCgrRouteTableEntriesCreated, sum"
scalar dtnsim.node[13].dtn routeCgrDijkstraLoops:sum 0
attr interpolationmode none
attr recordingmode sum
attr source routeCgrDijkstraLoops
attr title "routeCgrDijkstraLoops, sum"
scalar dtnsim.node[13].dtn routeCgrDijkstraCalls:sum 0
attr interpolationmode none
attr recordingmode sum
attr source routeCgrDijkstraCalls
attr title "routeCgrDijkstraCalls, sum"
scalar dtnsim.node[13].dtn sdrBytesStored:timeavg 0
attr interpolationmode none
attr recordingmode timeavg
attr source sdrBytesStored
attr title "sdrBytesStored, timeavg"
scalar dtnsim.node[13].dtn sdrBytesStored:max 0
attr interpolationmode none
attr recordingmode max
attr source sdrBytesStored
attr title "sdrBytesStored, max"
scalar dtnsim.node[13].dtn sdrBundleStored:timeavg 0
attr interpolationmode none
attr recordingmode timeavg
attr source sdrBundleStored
attr title "sdrBundleStored, timeavg"
scalar dtnsim.node[13].dtn sdrBundleStored:max 0
attr interpolationmode none
attr recordingmode max
attr source sdrBundleStored
attr title "sdrBundleStored, max"
scalar dtnsim.node[13].dtn dtnBundleReRouted:count 0
attr interpolationmode none
attr recordingmode count
attr source dtnBundleReRouted
attr title "dtnBundleReRouted, count"
scalar dtnsim.node[13].dtn dtnBundleReceivedFromApp:count 0
attr interpolationmode none
attr recordingmode count
attr source dtnBundleReceivedFromApp
attr title "dtnBundleReceivedFromApp, count"
scalar dtnsim.node[13].dtn dtnBundleReceivedFromCom:count 0
attr interpolationmode none
attr recordingmode count
attr source dtnBundleReceivedFromCom
attr title "dtnBundleReceivedFromCom, count"
statistic dtnsim.node[13].dtn dtnBundleSentToAppRevisitedHops:histogram
field count 0
field mean nan
field stddev nan
field min nan
field max nan
field sum 0
field sqrsum 0
attr interpolationmode none
attr recordingmode histogram
attr source dtnBundleSentToAppRevisitedHops
attr title dtnBundleSentToAppRevisitedHops
bin	-inf	0
bin	0	0
bin	1	0
statistic dtnsim.node[13].dtn dtnBundleSentToAppHopCount:histogram
field count 0
field mean nan
field stddev nan
field min nan
field max nan
field sum 0
field sqrsum 0
attr interpolationmode none
attr recordingmode histogram
attr source dtnBundleSentToAppHopCount
attr title dtnBundleSentToAppHopCount
bin	-inf	0
bin	0	0
bin	1	0
scalar dtnsim.node[13].dtn dtnBundleSentToApp:count 0
attr interpolationmode none
attr recordingmode count
attr source dtnBundleSentToApp
attr title "dtnBundleSentToApp, count"
scalar dtnsim.node[13].dtn dtnBundleSentToCom:count 0
attr interpolationmode none
attr recordingmode count
attr source dtnBundleSentToCom
attr title "dtnBundleSentToCom, count"
par dtnsim.node[13].com typename "\"src.node.com.Com\""
par dtnsim.node[13].com packetLoss 0
par dtnsim.node[13].graphics typename "\"src.node.graphics.Graphics\""
par dtnsim.node[13].graphics enable true
par dtnsim.node[13].fault typename "\"src.node.fault.Fault\""
par dtnsim.node[13].fault enable false
par dtnsim.node[13].fault faultSeed 20
par dtnsim.node[13].fault meanTTF 20seconds
attr unit seconds
par dtnsim.node[13].fault meanTTR 5seconds
attr unit seconds
par dtnsim.node[13] typename "\"src.node.Node\""
par dtnsim.node[13] icon "\"satellite\""
par dtnsim.node[14].app typename "\"src.node.app.App\""
par dtnsim.node[14].app enable false
par dtnsim.node[14].app destinationEid "\"1\""
par dtnsim.node[14].app bundlesNumber "\"1\""
par dtnsim.node[14].app size "\"1024\""
par dtnsim.node[14].app start "\"0\""
par dtnsim.node[14].app interval 0
par dtnsim.node[14].app ttl 9e+06
par dtnsim.node[14].app returnToSender true
par dtnsim.node[14].app critical false
par dtnsim.node[14].app custodyTransfer false
par dtnsim.node[14].app externalTrafficEvents "\"\""
scalar dtnsim.node[14].app appBundleReceivedDelay:mean nan
attr interpolationmode none
attr recordingmode mean
attr source appBundleReceivedDelay
attr title "appBundleReceivedDelay, mean"
scalar dtnsim.node[14].app appBundleReceivedDelay:max nan
attr interpolationmode none
attr recordingmode max
attr source appBundleReceivedDelay
attr title "appBundleReceivedDelay, max"
scalar dtnsim.node[14].app appBundleReceivedDelay:min nan
attr interpolationmode none
attr recordingmode min
attr source appBundleReceivedDelay
attr title "appBundleReceivedDelay, min"
statistic dtnsim.node[14].app appBundleReceivedDelay:histogram
field count 0
field mean nan
field stddev nan
field min nan
field max nan
field sum 0
field sqrsum 0
attr interpolationmode none
attr recordingmode histogram
attr source appBundleReceivedDelay
attr title appBundleReceivedDelay
bin	-inf	0
bin	0	0
bin	1	0
scalar dtnsim.node[14].app appBundleReceivedHops:mean nan
attr interpolationmode none
attr recordingmode mean
attr source appBundleReceivedHops
attr title "appBundleReceivedHops, mean"
scalar dtnsim.node[14].app appBundleReceivedHops:max nan
attr interpolationmode none
attr recordingmode max
attr source appBundleReceivedHops
attr title "appBundleReceivedHops, max"
scalar dtnsim.node[14].app appBundleReceivedHops:min nan
attr interpolationmode none
attr recordingmode min
attr source appBundleReceivedHops
attr title "appBundleReceivedHops, min"
statistic dtnsim.node[14].app appBundleReceivedHops:histogram
field count 0
field mean nan
field stddev nan
field min nan
field max nan
field sum 0
field sqrsum 0
attr interpolationmode none
attr recordingmode histogram
attr source appBundleReceivedHops
attr title appBundleReceivedHops
bin	-inf	0
bin	0	0
bin	1	0
scalar dtnsim.node[14].app appBundleReceived:count 0
attr interpolationmode none
attr recordingmode count
attr source appBundleReceived
attr title "appBundleReceived, count"
scalar dtnsim.node[14].app appBundleSent:count 0
attr interpolationmode none
attr recordingmode count
attr source appBundleSent
attr title "appBundleSent, count"
par dtnsim.node[14].dtn typename "\"src.node.dtn.Dtn\""
par dtnsim.node[14].dtn routing "\"uncertainUniboCgr\""
par dtnsim.node[14].dtn routingType "\"routeListType:allPaths-initial+anchor,volumeAware:allContacts,extensionBlock:on,contactPlan:local\""
par dtnsim.node[14].dtn bundlesCopies 1
par dtnsim.node[14].dtn sContactProb 1
par dtnsim.node[14].dtn printRoutingDebug true
par dtnsim.node[14].dtn saveBundleMap true
par dtnsim.node[14].dtn sdrSize 0
par dtnsim.node[14].dtn frouting "\"\""
par dtnsim.node[14].dtn ts_duration -1
par dtnsim.node[14].dtn ts_start_times "\"\""
par dtnsim.node[14].dtn pEncouterMax 0.7
par dtnsim.node[14].dtn pEncouterFirst 0.5
par dtnsim.node[14].dtn pFirstThreshold 0.1
par dtnsim.node[14].dtn ForwThresh 0
par dtnsim.node[14].dtn alpha 0.5
par dtnsim.node[14].dtn beta 0.9
par dtnsim.node[14].dtn gamma 0.999
par dtnsim.node[14].dtn delta 0.01
par dtnsim.node[14].dtn custodyReportByteSize 20
par dtnsim.node[14].dtn custodyTimeout 100
scalar dtnsim.node[14].dtn routeCgrRouteTableEntriesExplored:max nan
attr interpolationmode none
attr recordingmode max
attr source routeCgrRouteTableEntriesExplored
attr title "routeCgrRouteTableEntriesExplored, max"
scalar dtnsim.node[14].dtn routeCgrRouteTableEntriesExplored:sum 0
attr interpolationmode none
attr recordingmode sum
attr source routeCgrRouteTableEntriesExplored
attr title "routeCgrRouteTableEntriesExplored, sum"
scalar dtnsim.node[14].dtn routeCgrRouteTableEntriesCreated:max nan
attr interpolationmode none
attr recordingmode max
attr source routeCgrRouteTableEntriesCreated
attr title "routeCgrRouteTableEntriesCreated, max"
scalar dtnsim.node[14].dtn routeCgrRouteTableEntriesCreated:sum 0
attr interpolationmode none
attr recordingmode sum
attr source routeCgrRouteTableEntriesCreated
attr title "routeCgrRouteTableEntriesCreated, sum"
scalar dtnsim.node[14].dtn routeCgrDijkstraLoops:sum 0
attr interpolationmode none
attr recordingmode sum
attr source routeCgrDijkstraLoops
attr title "routeCgrDijkstraLoops, sum"
scalar dtnsim.node[14].dtn routeCgrDijkstraCalls:sum 0
attr interpolationmode none
attr recordingmode sum
attr source routeCgrDijkstraCalls
attr title "routeCgrDijkstraCalls, sum"
scalar dtnsim.node[14].dtn sdrBytesStored:timeavg 0
attr interpolationmode none
attr recordingmode timeavg
attr source sdrBytesStored
attr title "sdrBytesStored, timeavg"
scalar dtnsim.node[14].dtn sdrBytesStored:max 0
attr interpolationmode none
attr recordingmode max
attr source sdrBytesStored
attr title "sdrBytesStored, max"
scalar dtnsim.node[14].dtn sdrBundleStored:timeavg 0
attr interpolationmode none
attr recordingmode timeavg
attr source sdrBundleStored
attr title "sdrBundleStored, timeavg"
scalar dtnsim.node[14].dtn sdrBundleStored:max 0
attr interpolationmode none
attr recordingmode max
attr source sdrBundleStored
attr title "sdrBundleStored, max"
scalar dtnsim.node[14].dtn dtnBundleReRouted:count 0
attr interpolationmode none
attr recordingmode count
attr source dtnBundleReRouted
attr title "dtnBundleReRouted, count"
scalar dtnsim.node[14].dtn dtnBundleReceivedFromApp:count 0
attr interpolationmode none
attr recordingmode count
attr source dtnBundleReceivedFromApp
attr title "dtnBundleReceivedFromApp, count"
scalar dtnsim.node[14].dtn dtnBundleReceivedFromCom:count 0
attr interpolationmode none
attr recordingmode count
attr source dtnBundleReceivedFromCom
attr title "dtnBundleReceivedFromCom, count"
statistic dtnsim.node[14].dtn dtnBundleSentToAppRevisitedHops:histogram
field count 0
field mean nan
field stddev nan
field min nan
field max nan
field sum 0
field sqrsum 0
attr interpolationmode none
attr recordingmode histogram
attr source dtnBundleSentToAppRevisitedHops
attr title dtnBundleSentToAppRevisitedHops
bin	-inf	0
bin	0	0
bin	1	0
statistic dtnsim.node[14].dtn dtnBundleSentToAppHopCount:histogram
field count 0
field mean nan
field stddev nan
field min nan
field max nan
field sum 0
field sqrsum 0
attr interpolationmode none
attr recordingmode histogram
attr source dtnBundleSentToAppHopCount
attr title dtnBundleSentToAppHopCount
bin	-inf	0
bin	0	0
bin	1	0
scalar dtnsim.node[14].dtn dtnBundleSentToApp:count 0
attr interpolationmode none
attr recordingmode count
attr source dtnBundleSentToApp
attr title "dtnBundleSentToApp, count"
scalar dtnsim.node[14].dtn dtnBundleSentToCom:count 0
attr interpolationmode none
attr recordingmode count
attr source dtnBundleSentToCom
attr title "dtnBundleSentToCom, count"
par dtnsim.node[14].com typename "\"src.node.com.Com\""
par dtnsim.node[14].com packetLoss 0
par dtnsim.node[14].graphics typename "\"src.node.graphics.Graphics\""
par dtnsim.node[14].graphics enable true
par dtnsim.node[14].fault typename "\"src.node.fault.Fault\""
par dtnsim.node[14].fault enable false
par dtnsim.node[14].fault faultSeed 20
par dtnsim.node[14].fault meanTTF 20seconds
attr unit seconds
par dtnsim.node[14].fault meanTTR 5seconds
attr unit seconds
par dtnsim.node[14] typename "\"src.node.Node\""
par dtnsim.node[14] icon "\"satellite\""
par dtnsim.node[15].app typename "\"src.node.app.App\""
par dtnsim.node[15].app enable false
par dtnsim.node[15].app destinationEid "\"1\""
par dtnsim.node[15].app bundlesNumber "\"1\""
par dtnsim.node[15].app size "\"1024\""
par dtnsim.node[15].app start "\"0\""
par dtnsim.node[15].app interval 0
par dtnsim.node[15].app ttl 9e+06
par dtnsim.node[15].app returnToSender true
par dtnsim.node[15].app critical false
par dtnsim.node[15].app custodyTransfer false
par dtnsim.node[15].app externalTrafficEvents "\"\""
scalar dtnsim.node[15].app appBundleReceivedDelay:mean nan
attr interpolationmode none
attr recordingmode mean
attr source appBundleReceivedDelay
attr title "appBundleReceivedDelay, mean"
scalar dtnsim.node[15].app appBundleReceivedDelay:max nan
attr interpolationmode none
attr recordingmode max
attr source appBundleReceivedDelay
attr title "appBundleReceivedDelay, max"
scalar dtnsim.node[15].app appBundleReceivedDelay:min nan
attr interpolationmode none
attr recordingmode min
attr source appBundleReceivedDelay
attr title "appBundleReceivedDelay, min"
statistic dtnsim.node[15].app appBundleReceivedDelay:histogram
field count 0
field mean nan
field stddev nan
field min nan
field max nan
field sum 0
field sqrsum 0
attr interpolationmode none
attr recordingmode histogram
attr source appBundleReceivedDelay
attr title appBundleReceivedDelay
bin	-inf	0
bin	0	0
bin	1	0
scalar dtnsim.node[15].app appBundleReceivedHops:mean nan
attr interpolationmode none
attr recordingmode mean
attr source appBundleReceivedHops
attr title "appBundleReceivedHops, mean"
scalar dtnsim.node[15].app appBundleReceivedHops:max nan
attr interpolationmode none
attr recordingmode max
attr source appBundleReceivedHops
attr title "appBundleReceivedHops, max"
scalar dtnsim.node[15].app appBundleReceivedHops:min nan
attr interpolationmode none
attr recordingmode min
attr source appBundleReceivedHops
attr title "appBundleReceivedHops, min"
statistic dtnsim.node[15].app appBundleReceivedHops:histogram
field count 0
field mean nan
field stddev nan
field min nan
field max nan
field sum 0
field sqrsum 0
attr interpolationmode none
attr recordingmode histogram
attr source appBundleReceivedHops
attr title appBundleReceivedHops
bin	-inf	0
bin	0	0
bin	1	0
scalar dtnsim.node[15].app appBundleReceived:count 0
attr interpolationmode none
attr recordingmode count
attr source appBundleReceived
attr title "appBundleReceived, count"
scalar dtnsim.node[15].app appBundleSent:count 0
attr interpolationmode none
attr recordingmode count
attr source appBundleSent
attr title "appBundleSent, count"
par dtnsim.node[15].dtn typename "\"src.node.dtn.Dtn\""
par dtnsim.node[15].dtn routing "\"uncertainUniboCgr\""
par dtnsim.node[15].dtn routingType "\"routeListType:allPaths-initial+anchor,volumeAware:allContacts,extensionBlock:on,contactPlan:local\""
par dtnsim.node[15].dtn bundlesCopies 1
par dtnsim.node[15].dtn sContactProb 1
par dtnsim.node[15].dtn printRoutingDebug true
par dtnsim.node[15].dtn saveBundleMap true
par dtnsim.node[15].dtn sdrSize 0
par dtnsim.node[15].dtn frouting "\"\""
par dtnsim.node[15].dtn ts_duration -1
par dtnsim.node[15].dtn ts_start_times "\"\""
par dtnsim.node[15].dtn pEncouterMax 0.7
par dtnsim.node[15].dtn pEncouterFirst 0.5
par dtnsim.node[15].dtn pFirstThreshold 0.1
par dtnsim.node[15].dtn ForwThresh 0
par dtnsim.node[15].dtn alpha 0.5
par dtnsim.node[15].dtn beta 0.9
par dtnsim.node[15].dtn gamma 0.999
par dtnsim.node[15].dtn delta 0.01
par dtnsim.node[15].dtn custodyReportByteSize 20
par dtnsim.node[15].dtn custodyTimeout 100
scalar dtnsim.node[15].dtn routeCgrRouteTableEntriesExplored:max nan
attr interpolationmode none
attr recordingmode max
attr source routeCgrRouteTableEntriesExplored
attr title "routeCgrRouteTableEntriesExplored, max"
scalar dtnsim.node[15].dtn routeCgrRouteTableEntriesExplored:sum 0
attr interpolationmode none
attr recordingmode sum
attr source routeCgrRouteTableEntriesExplored
attr title "routeCgrRouteTableEntriesExplored, sum"
scalar dtnsim.node[15].dtn routeCgrRouteTableEntriesCreated:max nan
attr interpolationmode none
attr recordingmode max
attr source routeCgrRouteTableEntriesCreated
attr title "routeCgrRouteTableEntriesCreated, max"
scalar dtnsim.node[15].dtn routeCgrRouteTableEntriesCreated:sum 0
attr interpolationmode none
attr recordingmode sum
attr source routeCgrRouteTableEntriesCreated
attr title "routeCgrRouteTableEntriesCreated, sum"
scalar dtnsim.node[15].dtn routeCgrDijkstraLoops:sum 0
attr interpolationmode none
attr recordingmode sum
attr source routeCgrDijkstraLoops
attr title "routeCgrDijkstraLoops, sum"
scalar dtnsim.node[15].dtn routeCgrDijkstraCalls:sum 0
attr interpolationmode none
attr recordingmode sum
attr source routeCgrDijkstraCalls
attr title "routeCgrDijkstraCalls, sum"
scalar dtnsim.node[15].dtn sdrBytesStored:timeavg 0
attr interpolationmode none
attr recordingmode timeavg
attr source sdrBytesStored
attr title "sdrBytesStored, timeavg"
scalar dtnsim.node[15].dtn sdrBytesStored:max 0
attr interpolationmode none
attr recordingmode max
attr source sdrBytesStored
attr title "sdrBytesStored, max"
scalar dtnsim.node[15].dtn sdrBundleStored:timeavg 0
attr interpolationmode none
attr recordingmode timeavg
attr source sdrBundleStored
attr title "sdrBundleStored, timeavg"
scalar dtnsim.node[15].dtn sdrBundleStored:max 0
attr interpolationmode none
attr recordingmode max
attr source sdrBundleStored
attr title "sdrBundleStored, max"
scalar dtnsim.node[15].dtn dtnBundleReRouted:count 0
attr interpolationmode none
attr recordingmode count
attr source dtnBundleReRouted
attr title "dtnBundleReRouted, count"
scalar dtnsim.node[15].dtn dtnBundleReceivedFromApp:count 0
attr interpolationmode none
attr recordingmode count
attr source dtnBundleReceivedFromApp
attr title "dtnBundleReceivedFromApp, count"
scalar dtnsim.node[15].dtn dtnBundleReceivedFromCom:count 0
attr interpolationmode none
attr recordingmode count
attr source dtnBundleReceivedFromCom
attr title "dtnBundleReceivedFromCom, count"
statistic dtnsim.node[15].dtn dtnBundleSentToAppRevisitedHops:histogram
field count 0
field mean nan
field stddev nan
field min nan
field max nan
field sum 0
field sqrsum 0
attr interpolationmode none
attr recordingmode histogram
attr source dtnBundleSentToAppRevisitedHops
attr title dtnBundleSentToAppRevisitedHops
bin	-inf	0
bin	0	0
bin	1	0
statistic dtnsim.node[15].dtn dtnBundleSentToAppHopCount:histogram
field count 0
field mean nan
field stddev nan
field min nan
field max nan
field sum 0
field sqrsum 0
attr interpolationmode none
attr recordingmode histogram
attr source dtnBundleSentToAppHopCount
attr title dtnBundleSentToAppHopCount
bin	-inf	0
bin	0	0
bin	1	0
scalar dtnsim.node[15].dtn dtnBundleSentToApp:count 0
attr interpolationmode none
attr recordingmode count
attr source dtnBundleSentToApp
attr title "dtnBundleSentToApp, count"
scalar dtnsim.node[15].dtn dtnBundleSentToCom:count 0
attr interpolationmode none
attr recordingmode count
attr source dtnBundleSentToCom
attr title "dtnBundleSentToCom, count"
par dtnsim.node[15].com typename "\"src.node.com.Com\""
par dtnsim.node[15].com packetLoss 0
par dtnsim.node[15].graphics typename "\"src.node.graphics.Graphics\""
par dtnsim.node[15].graphics enable true
par dtnsim.node[15].fault typename "\"src.node.fault.Fault\""
par dtnsim.node[15].fault enable false
par dtnsim.node[15].fault faultSeed 20
par dtnsim.node[15].fault meanTTF 20seconds
attr unit seconds
par dtnsim.node[15].fault meanTTR 5seconds
attr unit seconds
par dtnsim.node[15] typename "\"src.node.Node\""
par dtnsim.node[15] icon "\"satellite\""
par dtnsim.central typename "\"src.central.Central\""
par dtnsim.central saveTopology true
par dtnsim.central saveFlows true
par dtnsim.central saveLpFlows false
par dtnsim.central contactsFile "\"contactPlan/contactPlan.txt\""
par dtnsim.central enableAvailableRoutesCalculation false
par dtnsim.central deleteNContacts 0
par dtnsim.central useSpecificFailureProbabilities true
par dtnsim.central failureProbability 20
par dtnsim.central contactIdsToDelete "\"\""
par dtnsim.central useCentrality false
par dtnsim.central faultsAware true
par dtnsim.central mode 0
par dtnsim.central useUncertainty true
par dtnsim.central collectorPath "\"../../../experiment_results/simulation_3\""
par dtnsim.central repetition 0
scalar dtnsim.central pairsOfNodesWithAtLeastOneRoute:sum 0
attr interpolationmode none
attr recordingmode sum
attr source pairsOfNodesWithAtLeastOneRoute
attr title "pairsOfNodesWithAtLeastOneRoute, sum"
scalar dtnsim.central availableRoutes:sum 0
attr interpolationmode none
attr recordingmode sum
attr source availableRoutes
attr title "availableRoutes, sum"
scalar dtnsim.central totalRoutes:sum 0
attr interpolationmode none
attr recordingmode sum
attr source totalRoutes
attr title "totalRoutes, sum"
scalar dtnsim.central contactsNumber:sum 59
attr interpolationmode none
attr recordingmode sum
attr source contactsNumber
attr title "contactsNumber, sum"
par dtnsim typename "\"src.dtnsim\""
par dtnsim nodesNumber 15

