                                                                
version 2
run General-0-20220106-22:55:01-15433
attr configname General
attr datetime 20220106-22:55:01
attr experiment General
attr inifile example1.ini
attr iterationvars ""
attr iterationvarsf ""
attr measurement ""
attr network src.dtnsim
attr processid 15433
attr repetition 0
attr replication #0
attr resultdir results
attr runnumber 0
attr seedset 0
param dtnsim.nodesNumber 10
param dtnsim.node[1..3].icon "\"satellite\""
param dtnsim.node[*].fault.enable false
param dtnsim.node[*].fault.faultSeed 0*10
param dtnsim.node[*].fault.meanTTF 20s
param dtnsim.node[*].fault.meanTTR 5s
param dtnsim.node[*].dtn.routing "\"uniboCgr\""
param dtnsim.node[*].dtn.routingType "\"routeListType:allPaths-initial+anchor,volumeAware:allContacts,extensionBlock:on,contactPlan:local\""
param dtnsim.node[*].dtn.printRoutingDebug true
param dtnsim.central.contactsFile "\"contactPlan/contactPlan.txt\""
param dtnsim.node[*].dtn.saveBundleMap true
param dtnsim.central.saveTopology true
param dtnsim.central.saveFlows true
param dtnsim.node[1].app.enable true
param dtnsim.node[1].app.returnToSender false
param dtnsim.node[1].app.bundlesNumber "\"1,1,1,1,1,1,1\""
param dtnsim.node[1].app.start "\"10, 21, 32, 71, 76, 78, 92\""
param dtnsim.node[1].app.destinationEid "\"2,2,2,2,2,2,2\""
param dtnsim.node[1].app.size "\"1000,1000,1000,1000,1000,1000,1000\""
param dtnsim.node[4].app.enable true
param dtnsim.node[4].app.returnToSender false
param dtnsim.node[4].app.bundlesNumber "\"1\""
param dtnsim.node[4].app.start "\"50\""
param dtnsim.node[4].app.destinationEid "\"2\""
param dtnsim.node[4].app.size "\"1000\""

vector 0 dtnsim.node[1].dtn sdrBundleStored:vector ETV
attr interpolationmode none
attr source sdrBundleStored
attr title "sdrBundleStored, vector"
vector 1 dtnsim.node[1].dtn sdrBytesStored:vector ETV
attr interpolationmode none
attr source sdrBytesStored
attr title "sdrBytesStored, vector"
vector 2 dtnsim.node[2].dtn sdrBundleStored:vector ETV
attr interpolationmode none
attr source sdrBundleStored
attr title "sdrBundleStored, vector"
vector 3 dtnsim.node[2].dtn sdrBytesStored:vector ETV
attr interpolationmode none
attr source sdrBytesStored
attr title "sdrBytesStored, vector"
vector 4 dtnsim.node[3].dtn sdrBundleStored:vector ETV
attr interpolationmode none
attr source sdrBundleStored
attr title "sdrBundleStored, vector"
vector 5 dtnsim.node[3].dtn sdrBytesStored:vector ETV
attr interpolationmode none
attr source sdrBytesStored
attr title "sdrBytesStored, vector"
vector 6 dtnsim.node[4].dtn sdrBundleStored:vector ETV
attr interpolationmode none
attr source sdrBundleStored
attr title "sdrBundleStored, vector"
vector 7 dtnsim.node[4].dtn sdrBytesStored:vector ETV
attr interpolationmode none
attr source sdrBytesStored
attr title "sdrBytesStored, vector"
vector 8 dtnsim.node[5].dtn sdrBundleStored:vector ETV
attr interpolationmode none
attr source sdrBundleStored
attr title "sdrBundleStored, vector"
vector 9 dtnsim.node[5].dtn sdrBytesStored:vector ETV
attr interpolationmode none
attr source sdrBytesStored
attr title "sdrBytesStored, vector"
vector 10 dtnsim.node[6].dtn sdrBundleStored:vector ETV
attr interpolationmode none
attr source sdrBundleStored
attr title "sdrBundleStored, vector"
vector 11 dtnsim.node[6].dtn sdrBytesStored:vector ETV
attr interpolationmode none
attr source sdrBytesStored
attr title "sdrBytesStored, vector"
vector 12 dtnsim.node[7].dtn sdrBundleStored:vector ETV
attr interpolationmode none
attr source sdrBundleStored
attr title "sdrBundleStored, vector"
vector 13 dtnsim.node[7].dtn sdrBytesStored:vector ETV
attr interpolationmode none
attr source sdrBytesStored
attr title "sdrBytesStored, vector"
vector 14 dtnsim.node[8].dtn sdrBundleStored:vector ETV
attr interpolationmode none
attr source sdrBundleStored
attr title "sdrBundleStored, vector"
vector 15 dtnsim.node[8].dtn sdrBytesStored:vector ETV
attr interpolationmode none
attr source sdrBytesStored
attr title "sdrBytesStored, vector"
vector 16 dtnsim.node[9].dtn sdrBundleStored:vector ETV
attr interpolat