version 2
run General-0-20211215-17:33:24-7844
attr configname General
attr datetime 20211215-17:33:24
attr experiment General
attr inifile example1.ini
attr iterationvars ""
attr iterationvarsf ""
attr measurement ""
attr network src.dtnsim
attr processid 7844
attr repetition 0
attr replication #0
attr resultdir results
attr runnumber 0
attr seedset 0
param dtnsim.nodesNumber 3
param dtnsim.node[1..3].icon "\"satellite\""
param dtnsim.node[*].fault.enable false
param dtnsim.node[*].fault.faultSeed 0*10
param dtnsim.node[*].fault.meanTTF 20s
param dtnsim.node[*].fault.meanTTR 5s
param dtnsim.node[*].dtn.routing "\"uniboCgr\""
param dtnsim.node[*].dtn.routingType "\"routeListType:allPaths-initial+anchor,volumeAware:allContacts,extensionBlock:on,contactPlan:local\""
param dtnsim.node[*].dtn.printRoutingDebug true
param dtnsim.central.contactsFile "\"contactPlan/contactPlan.txt\""
param dtnsim.node[*].dtn.saveBundleMap true
param dtnsim.central.saveTopology true
param dtnsim.central.saveFlows true
param dtnsim.node[1].app.enable true
param dtnsim.node[1].app.returnToSender false
param dtnsim.node[1].app.bundlesNumber "\"1,1,1\""
param dtnsim.node[1].app.start "\"85,95,105\""
param dtnsim.node[1].app.destinationEid "\"3,3,3\""
param dtnsim.node[1].app.size "\"1000,1000,1000\""
param dtnsim.node[2].app.enable true
param dtnsim.node[2].app.returnToSender false
param dtnsim.node[2].app.bundlesNumber "\"1,1,1\""
param dtnsim.node[2].app.start "\"25,35,65\""
param dtnsim.node[2].app.destinationEid "\"3,3,3\""
param dtnsim.node[2].app.size "\"1000,1000,1000\""

vector 0 dtnsim.node[1].dtn sdrBundleStored:vector ETV
attr interpolationmode none
attr source sdrBundleStored
attr title "sdrBundleStored, vector"
vector 1 dtnsim.node[1].dtn sdrBytesStored:vector ETV
attr interpolationmode none
attr source sdrBytesStored
attr title "sdrBytesStored, vector"
vector 2 dtnsim.node[2].dtn sdrBundleStored:vector ETV
attr interpolationmode none
attr source sdrBundleStored
attr title "sdrBundleStored, vector"
vector 3 dtnsim.node[2].dtn sdrBytesStored:vector ETV
attr interpolationmode none
attr source sdrBytesStored
attr title "sdrBytesStored, vector"
vector 4 dtnsim.node[3].dtn sdrBundleStored:vector ETV
attr interpolationmode none
attr source sdrBundleStored
attr title "sdrBundleStored, vector"
vector 5 dtnsim.node[3].dtn sdrBytesStored:vector ETV
attr interpolationmode none
attr source sdrBytesStored
attr title "sdrBytesStored, vector"
vector 6 dtnsim.node[3].dtn dtnBundleSentToAppHopCount:vector ETV
attr interpolationmode none
attr source dtnBundleSentToAppHopCount
attr title "dtnBundleSentToAppHopCount, vector"
0	0	0	0
0	51	85	1
0	56	90	0
0	63	95	1
0	64	95	0
0	72	105	0
0	73	120	0
1	0	0	0
1	51	85	1000
1	56	90	0
1	63	95	1000
1	64	95	0
1	72	105	0
1	73	120	0
2	0	0	0
2	13	25	1
2	20	35	1
2	24	40	0
2	40	65	1
2	59	90	1
2	67	95	1
2	73	120	1
3	0	0	0
3	13	25	1000
3	20	35	1000
3	24	40	0
3	40	65	1000
3	59	90	1000
3	67	95	1000
3	73	120	1000
4	0	0	0
4	73	120	0
5	0	0	0
5	73	120	0
6	27	40	1

